/work/05113/danieler/stampede2/CFD-Final-Project/circular-cylinder-1-10
Sun May 10 17:54:50 CDT 2020
/*---------------------------------------------------------------------------*\
  =========                 |
  \\      /  F ield         | OpenFOAM: The Open Source CFD Toolbox
   \\    /   O peration     | Website:  https://openfoam.org
    \\  /    A nd           | Version:  6.0
     \\/     M anipulation  |
\*---------------------------------------------------------------------------*/
Build  : 6.0
Exec   : blockMesh
Date   : May 10 2020
Time   : 17:54:52
Host   : "c401-072.stampede2.tacc.utexas.edu"
PID    : 144450
I/O    : uncollated
Case   : /work/05113/danieler/stampede2/CFD-Final-Project/circular-cylinder-1-10
nProcs : 1
sigFpe : Enabling floating point exception trapping (FOAM_SIGFPE).
fileModificationChecking : Monitoring run-time modified files using timeStampMaster (fileModificationSkew 10)
allowSystemOperations : Allowing user-supplied system call operations

// * * * * * * * * * * * * * * * * * * * * * * * * * * * * * * * * * * * * * //
Create time

Deleting polyMesh directory
    "/work/05113/danieler/stampede2/CFD-Final-Project/circular-cylinder-1-10/constant/polyMesh"
Creating block mesh from
    "/work/05113/danieler/stampede2/CFD-Final-Project/circular-cylinder-1-10/system/blockMeshDict"
Creating block edges
No non-planar block faces defined
Creating topology blocks
Creating topology patches

Creating block mesh topology

Check topology

	Basic statistics
		Number of internal faces : 28
		Number of boundary faces : 64
		Number of defined boundary faces : 64
		Number of undefined boundary faces : 0
	Checking patch -> block consistency

Creating block offsets
Creating merge list .

Creating polyMesh from blockMesh
Creating points with scale 1
    Block 0 cell size :
        i : 0.025 .. 0.025
        j : 0.0196334 .. 0.0196334
        k : 1 .. 1

    Block 1 cell size :
        i : 0.0196334 .. 0.0196334
        j : 0.025 .. 0.025
        k : 1 .. 1

    Block 2 cell size :
        i : 0.0196334 .. 0.0196334
        j : 0.0249962 .. 0.0249962
        k : 1 .. 1

    Block 3 cell size :
        i : 0.025 .. 0.025
        j : 0.0392667 .. 0.0392667
        k : 1 .. 1

    Block 4 cell size :
        i : 0.0249962 .. 0.0249962
        j : 0.0392667 .. 0.0392667
        k : 1 .. 1

    Block 5 cell size :
        i : 0.0392667 .. 0.0392667
        j : 0.0249962 .. 0.0249962
        k : 1 .. 1

    Block 6 cell size :
        i : 0.0392667 .. 0.0392667
        j : 0.025 .. 0.025
        k : 1 .. 1

    Block 7 cell size :
        i : 0.0249962 .. 0.0249962
        j : 0.0196334 .. 0.0196334
        k : 1 .. 1

    Block 8 cell size :
        i : 0.132326 .. 0.529304
        j : 0.0392667 .. 0.0392667
        k : 1 .. 1

    Block 9 cell size :
        i : 0.135696 .. 0.542785
        j : 0.0640059 .. 0.256024
        k : 1 .. 1

    Block 10 cell size :
        i : 0.0392667 .. 0.0392667
        j : 0.0572934 .. 0.229174
        k : 1 .. 1

    Block 11 cell size :
        i : 0.0392667 .. 0.0392667
        j : 0.0640059 .. 0.256024
        k : 1 .. 1

    Block 12 cell size :
        i : 0.139645 .. 0.139645
        j : 0.0640059 .. 0.256024
        k : 1 .. 1

    Block 13 cell size :
        i : 0.125 .. 0.125
        j : 0.035355 .. 0.035355
        k : 1 .. 1

    Block 14 cell size :
        i : 0.139645 .. 0.139645
        j : 0.035355 .. 0.035355
        k : 1 .. 1

    Block 15 cell size :
        i : 0.139645 .. 0.139645
        j : 0.256024 .. 0.0640059
        k : 1 .. 1

    Block 16 cell size :
        i : 0.035355 .. 0.035355
        j : 0.256024 .. 0.0640059
        k : 1 .. 1

    Block 17 cell size :
        i : 0.035355 .. 0.035355
        j : 0.229174 .. 0.0572934
        k : 1 .. 1

    Block 18 cell size :
        i : 0.135696 .. 0.542785
        j : 0.256024 .. 0.0640059
        k : 1 .. 1

    Block 19 cell size :
        i : 0.135696 .. 0.542785
        j : 0.0392667 .. 0.0392667
        k : 1 .. 1

Creating cells
Creating patches

Writing polyMesh
----------------
Mesh Information
----------------
  boundingBox: (-3.5 -3.5 0) (12.5 3.5 1)
  nPoints: 19720
  nCells: 9600
  nFaces: 38660
  nInternalFaces: 18940
----------------
Patches
----------------
  patch 0 (start: 18940 size: 80) name: inlet
  patch 1 (start: 19020 size: 80) name: outlet
  patch 2 (start: 19100 size: 100) name: top
  patch 3 (start: 19200 size: 100) name: bottom
  patch 4 (start: 19300 size: 160) name: cylinder
  patch 5 (start: 19460 size: 19200) name: frontandback

End

/*---------------------------------------------------------------------------*\
  =========                 |
  \\      /  F ield         | OpenFOAM: The Open Source CFD Toolbox
   \\    /   O peration     | Website:  https://openfoam.org
    \\  /    A nd           | Version:  6.0
     \\/     M anipulation  |
\*---------------------------------------------------------------------------*/
Build  : 6.0
Exec   : checkMesh
Date   : May 10 2020
Time   : 17:54:54
Host   : "c401-072.stampede2.tacc.utexas.edu"
PID    : 144457
I/O    : uncollated
Case   : /work/05113/danieler/stampede2/CFD-Final-Project/circular-cylinder-1-10
nProcs : 1
sigFpe : Enabling floating point exception trapping (FOAM_SIGFPE).
fileModificationChecking : Monitoring run-time modified files using timeStampMaster (fileModificationSkew 10)
allowSystemOperations : Allowing user-supplied system call operations

// * * * * * * * * * * * * * * * * * * * * * * * * * * * * * * * * * * * * * //
Create time

Create polyMesh for time = 0

Time = 0

Mesh stats
    points:           19720
    internal points:  0
    faces:            38660
    internal faces:   18940
    cells:            9600
    faces per cell:   6
    boundary patches: 6
    point zones:      0
    face zones:       0
    cell zones:       0

Overall number of cells of each type:
    hexahedra:     9600
    prisms:        0
    wedges:        0
    pyramids:      0
    tet wedges:    0
    tetrahedra:    0
    polyhedra:     0

Checking topology...
    Boundary definition OK.
    Cell to face addressing OK.
    Point usage OK.
    Upper triangular ordering OK.
    Face vertices OK.
    Number of regions: 1 (OK).

Checking patch topology for multiply connected surfaces...
    Patch               Faces    Points   Surface topology                  
    inlet               80       162      ok (non-closed singly connected)  
    outlet              80       162      ok (non-closed singly connected)  
    top                 100      202      ok (non-closed singly connected)  
    bottom              100      202      ok (non-closed singly connected)  
    cylinder            160      320      ok (non-closed singly connected)  
    frontandback        19200    19720    ok (non-closed singly connected)  

Checking geometry...
    Overall domain bounding box (-3.5 -3.5 0) (12.5 3.5 1)
    Mesh has 2 geometric (non-empty/wedge) directions (1 1 0)
    Mesh has 2 solution (non-empty) directions (1 1 0)
    All edges aligned with or perpendicular to non-empty directions.
    Boundary openness (8.1763e-18 1.52999e-16 -2.59276e-15) OK.
    Max cell openness = 2.14597e-16 OK.
    Max aspect ratio = 15.3524 OK.
    Minimum face area = 0.000502938. Maximum face area = 0.542785.  Face area magnitudes OK.
    Min volume = 0.000502938. Max volume = 0.138966.  Total volume = 111.215.  Cell volumes OK.
    Mesh non-orthogonality Max: 43.475 average: 11.32
    Non-orthogonality check OK.
    Face pyramids OK.
    Max skewness = 0.488996 OK.
    Coupled point location match (average 0) OK.

Mesh OK.

End

/*---------------------------------------------------------------------------*\
  =========                 |
  \\      /  F ield         | OpenFOAM: The Open Source CFD Toolbox
   \\    /   O peration     | Website:  https://openfoam.org
    \\  /    A nd           | Version:  6.0
     \\/     M anipulation  |
\*---------------------------------------------------------------------------*/
Build  : 6.0
Exec   : decomposePar
Date   : May 10 2020
Time   : 17:54:57
Host   : "c401-072.stampede2.tacc.utexas.edu"
PID    : 144514
I/O    : uncollated
Case   : /work/05113/danieler/stampede2/CFD-Final-Project/circular-cylinder-1-10
nProcs : 1
sigFpe : Enabling floating point exception trapping (FOAM_SIGFPE).
fileModificationChecking : Monitoring run-time modified files using timeStampMaster (fileModificationSkew 10)
allowSystemOperations : Allowing user-supplied system call operations

// * * * * * * * * * * * * * * * * * * * * * * * * * * * * * * * * * * * * * //
Create time



Decomposing mesh region0

Create mesh

Calculating distribution of cells
Selecting decompositionMethod hierarchical

Finished decomposition in 0.01 s

Calculating original mesh data

Distributing cells to processors

Distributing faces to processors

Distributing points to processors

Constructing processor meshes

Processor 0
    Number of cells = 4800
    Number of faces shared with processor 1 = 100
    Number of processor patches = 1
    Number of processor faces = 100
    Number of boundary faces = 9892

Processor 1
    Number of cells = 4800
    Number of faces shared with processor 0 = 100
    Number of processor patches = 1
    Number of processor faces = 100
    Number of boundary faces = 9828

Number of processor faces = 100
Max number of cells = 4800 (0% above average 4800)
Max number of processor patches = 1 (0% above average 1)
Max number of faces between processors = 100 (0% above average 100)

Time = 0
--> FOAM Warning : 
    From function bool Foam::IOobject::readHeader(Foam::Istream &)
    in file db/IOobject/IOobjectReadHeader.C at line 88
    Reading "/work/05113/danieler/stampede2/CFD-Final-Project/circular-cylinder-1-10/0/log" at line 8
    First token could not be read or is not the keyword 'FoamFile'

Check header is of the form:

/*--------------------------------*- C++ -*----------------------------------*\
  =========                 |
  \\      /  F ield         | OpenFOAM: The Open Source CFD Toolbox
   \\    /   O peration     | Website:  https://openfoam.org
    \\  /    A nd           | Version:  6.0
     \\/     M anipulation  |
\*---------------------------------------------------------------------------*/
FoamFile
{
    version     2.0;
    format      ascii;
    class       IOobject;
    location    "0";
    object      log;
}
// * * * * * * * * * * * * * * * * * * * * * * * * * * * * * * * * * * * * * //


Processor 0: field transfer
Processor 1: field transfer

End

TACC:  Starting up job 5677377 
TACC:  Starting parallel tasks... 
/*---------------------------------------------------------------------------*\
  =========                 |
  \\      /  F ield         | OpenFOAM: The Open Source CFD Toolbox
   \\    /   O peration     | Website:  https://openfoam.org
    \\  /    A nd           | Version:  6.0
     \\/     M anipulation  |
\*---------------------------------------------------------------------------*/
Build  : 6.0
Exec   : /home1/apps/intel18/impi18_0/OpenFOAM/OpenFOAM-6.0/platforms/linux64IccDPInt32Opt/bin/icoFoam -parallel
Date   : May 10 2020
Time   : 17:55:01
Host   : "c401-072.stampede2.tacc.utexas.edu"
PID    : 144620
I/O    : uncollated
Case   : /work/05113/danieler/stampede2/CFD-Final-Project/circular-cylinder-1-10
nProcs : 2
Slaves : 1("c401-072.stampede2.tacc.utexas.edu.144621")
Pstream initialized with:
    floatTransfer      : 0
    nProcsSimpleSum    : 0
    commsType          : nonBlocking
    polling iterations : 0
sigFpe : Enabling floating point exception trapping (FOAM_SIGFPE).
fileModificationChecking : Monitoring run-time modified files using timeStampMaster (fileModificationSkew 10)
allowSystemOperations : Allowing user-supplied system call operations

// * * * * * * * * * * * * * * * * * * * * * * * * * * * * * * * * * * * * * //
Create time

Create mesh for time = 0

Reading transportProperties

Reading field p

Reading field U

Reading/calculating face flux field phi


Starting time loop

Time = 0.01

Courant Number mean: 0.067789 max: 0.619918
smoothSolver:  Solving for Ux, Initial residual = 1, Final residual = 7.37628e-06, No Iterations 13
smoothSolver:  Solving for Uy, Initial residual = 1, Final residual = 5.26354e-06, No Iterations 13
DICPCG:  Solving for p, Initial residual = 1, Final residual = 0.0499915, No Iterations 98
time step continuity errors : sum local = 9.32871e-06, global = -8.19544e-08, cumulative = -8.19544e-08
DICPCG:  Solving for p, Initial residual = 0.25182, Final residual = 8.91291e-07, No Iterations 171
time step continuity errors : sum local = 1.00705e-09, global = 2.03172e-12, cumulative = -8.19524e-08
ExecutionTime = 0.31 s  ClockTime = 0 s

Time = 0.02

Courant Number mean: 0.0708326 max: 1.76769
smoothSolver:  Solving for Ux, Initial residual = 0.244012, Final residual = 9.92191e-06, No Iterations 9
smoothSolver:  Solving for Uy, Initial residual = 0.2979, Final residual = 6.60882e-06, No Iterations 10
DICPCG:  Solving for p, Initial residual = 0.309747, Final residual = 0.0149619, No Iterations 99
time step continuity errors : sum local = 1.38621e-05, global = 1.01547e-07, cumulative = 1.95951e-08
DICPCG:  Solving for p, Initial residual = 0.399877, Final residual = 8.62808e-07, No Iterations 173
time step continuity errors : sum local = 6.01594e-10, global = -2.92097e-12, cumulative = 1.95922e-08
ExecutionTime = 0.41 s  ClockTime = 0 s

Time = 0.03

Courant Number mean: 0.0715262 max: 2.00803
smoothSolver:  Solving for Ux, Initial residual = 0.0577257, Final residual = 5.05329e-06, No Iterations 9
smoothSolver:  Solving for Uy, Initial residual = 0.064219, Final residual = 4.43071e-06, No Iterations 9
DICPCG:  Solving for p, Initial residual = 0.616556, Final residual = 0.0272503, No Iterations 84
time step continuity errors : sum local = 5.4844e-06, global = 4.61165e-08, cumulative = 6.57086e-08
DICPCG:  Solving for p, Initial residual = 0.371681, Final residual = 9.14306e-07, No Iterations 159
time step continuity errors : sum local = 1.77636e-10, global = 6.74334e-13, cumulative = 6.57093e-08
ExecutionTime = 0.51 s  ClockTime = 0 s

Time = 0.04

Courant Number mean: 0.0719692 max: 2.13155
smoothSolver:  Solving for Ux, Initial residual = 0.0278937, Final residual = 7.65139e-06, No Iterations 8
smoothSolver:  Solving for Uy, Initial residual = 0.0312845, Final residual = 7.67733e-06, No Iterations 8
DICPCG:  Solving for p, Initial residual = 0.2833, Final residual = 0.0139225, No Iterations 47
time step continuity errors : sum local = 1.64652e-06, global = 2.15333e-07, cumulative = 2.81043e-07
DICPCG:  Solving for p, Initial residual = 0.175833, Final residual = 9.74573e-07, No Iterations 162
time step continuity errors : sum local = 1.12057e-10, global = 1.87704e-13, cumulative = 2.81043e-07
ExecutionTime = 0.59 s  ClockTime = 0 s

Time = 0.05

Courant Number mean: 0.0723109 max: 2.19405
smoothSolver:  Solving for Ux, Initial residual = 0.0162054, Final residual = 5.89019e-06, No Iterations 8
smoothSolver:  Solving for Uy, Initial residual = 0.0194794, Final residual = 6.31406e-06, No Iterations 8
DICPCG:  Solving for p, Initial residual = 0.147136, Final residual = 0.00679454, No Iterations 25
time step continuity errors : sum local = 6.41622e-07, global = -1.86861e-08, cumulative = 2.62357e-07
DICPCG:  Solving for p, Initial residual = 0.0883086, Final residual = 9.18326e-07, No Iterations 158
time step continuity errors : sum local = 8.87741e-11, global = 3.36123e-13, cumulative = 2.62357e-07
ExecutionTime = 0.67 s  ClockTime = 0 s

Time = 0.06

Courant Number mean: 0.0726156 max: 2.23081
smoothSolver:  Solving for Ux, Initial residual = 0.0135605, Final residual = 4.72655e-06, No Iterations 8
smoothSolver:  Solving for Uy, Initial residual = 0.0169106, Final residual = 5.25273e-06, No Iterations 8
DICPCG:  Solving for p, Initial residual = 0.100098, Final residual = 0.00417204, No Iterations 40
time step continuity errors : sum local = 4.11457e-07, global = 3.92606e-08, cumulative = 3.01618e-07
DICPCG:  Solving for p, Initial residual = 0.060349, Final residual = 9.07328e-07, No Iterations 154
time step continuity errors : sum local = 9.02432e-11, global = -1.40355e-12, cumulative = 3.01616e-07
ExecutionTime = 0.76 s  ClockTime = 0 s

Time = 0.07

Courant Number mean: 0.0728727 max: 2.25542
smoothSolver:  Solving for Ux, Initial residual = 0.0111501, Final residual = 9.18537e-06, No Iterations 7
smoothSolver:  Solving for Uy, Initial residual = 0.0145026, Final residual = 4.46403e-06, No Iterations 8
DICPCG:  Solving for p, Initial residual = 0.0786709, Final residual = 0.0035763, No Iterations 39
time step continuity errors : sum local = 3.50487e-07, global = 1.25485e-08, cumulative = 3.14165e-07
DICPCG:  Solving for p, Initial residual = 0.0508007, Final residual = 8.51326e-07, No Iterations 155
time step continuity errors : sum local = 8.41708e-11, global = -1.58378e-12, cumulative = 3.14163e-07
ExecutionTime = 0.84 s  ClockTime = 0 s

Time = 0.08

Courant Number mean: 0.0731007 max: 2.27337
smoothSolver:  Solving for Ux, Initial residual = 0.00966583, Final residual = 7.79483e-06, No Iterations 7
smoothSolver:  Solving for Uy, Initial residual = 0.012919, Final residual = 9.38452e-06, No Iterations 7
DICPCG:  Solving for p, Initial residual = 0.0647776, Final residual = 0.00300961, No Iterations 39
time step continuity errors : sum local = 2.99004e-07, global = 1.23149e-08, cumulative = 3.26478e-07
DICPCG:  Solving for p, Initial residual = 0.0428394, Final residual = 8.41838e-07, No Iterations 155
time step continuity errors : sum local = 8.41793e-11, global = -1.32393e-12, cumulative = 3.26477e-07
ExecutionTime = 0.92 s  ClockTime = 1 s

Time = 0.09

Courant Number mean: 0.0733171 max: 2.28729
smoothSolver:  Solving for Ux, Initial residual = 0.00856521, Final residual = 6.72681e-06, No Iterations 7
smoothSolver:  Solving for Uy, Initial residual = 0.0116763, Final residual = 8.19938e-06, No Iterations 7
DICPCG:  Solving for p, Initial residual = 0.0548902, Final residual = 0.0027287, No Iterations 29
time step continuity errors : sum local = 2.73999e-07, global = -1.12252e-09, cumulative = 3.25354e-07
DICPCG:  Solving for p, Initial residual = 0.0369999, Final residual = 8.63233e-07, No Iterations 155
time step continuity errors : sum local = 8.71726e-11, global = -6.1384e-13, cumulative = 3.25354e-07
ExecutionTime = 1 s  ClockTime = 1 s

Time = 0.1

Courant Number mean: 0.0735231 max: 2.29852
smoothSolver:  Solving for Ux, Initial residual = 0.007737, Final residual = 5.88501e-06, No Iterations 7
smoothSolver:  Solving for Uy, Initial residual = 0.0106953, Final residual = 7.22597e-06, No Iterations 7
DICPCG:  Solving for p, Initial residual = 0.0482516, Final residual = 0.00209274, No Iterations 29
time step continuity errors : sum local = 2.12543e-07, global = -4.79924e-10, cumulative = 3.24874e-07
DICPCG:  Solving for p, Initial residual = 0.0330522, Final residual = 8.62764e-07, No Iterations 155
time step continuity errors : sum local = 8.8085e-11, global = -1.98109e-13, cumulative = 3.24874e-07
ExecutionTime = 1.07 s  ClockTime = 1 s

Time = 0.11

Courant Number mean: 0.0737134 max: 2.3079
smoothSolver:  Solving for Ux, Initial residual = 0.00708939, Final residual = 5.20676e-06, No Iterations 7
smoothSolver:  Solving for Uy, Initial residual = 0.00986509, Final residual = 6.42001e-06, No Iterations 7
DICPCG:  Solving for p, Initial residual = 0.0431256, Final residual = 0.00194224, No Iterations 29
time step continuity errors : sum local = 1.995e-07, global = -6.82907e-10, cumulative = 3.24191e-07
DICPCG:  Solving for p, Initial residual = 0.0300987, Final residual = 9.74555e-07, No Iterations 154
time step continuity errors : sum local = 1.0054e-10, global = -2.04617e-14, cumulative = 3.24191e-07
ExecutionTime = 1.15 s  ClockTime = 1 s

Time = 0.12

Courant Number mean: 0.073893 max: 2.31586
smoothSolver:  Solving for Ux, Initial residual = 0.00656117, Final residual = 4.64901e-06, No Iterations 7
smoothSolver:  Solving for Uy, Initial residual = 0.0091685, Final residual = 5.74104e-06, No Iterations 7
DICPCG:  Solving for p, Initial residual = 0.0391316, Final residual = 0.00177705, No Iterations 29
time step continuity errors : sum local = 1.84374e-07, global = -5.32702e-10, cumulative = 3.23658e-07
DICPCG:  Solving for p, Initial residual = 0.027677, Final residual = 9.27035e-07, No Iterations 154
time step continuity errors : sum local = 9.65268e-11, global = 8.58973e-14, cumulative = 3.23658e-07
ExecutionTime = 1.22 s  ClockTime = 1 s

Time = 0.13

Courant Number mean: 0.0740654 max: 2.32275
smoothSolver:  Solving for Ux, Initial residual = 0.00612239, Final residual = 4.1833e-06, No Iterations 7
smoothSolver:  Solving for Uy, Initial residual = 0.00857165, Final residual = 5.16346e-06, No Iterations 7
DICPCG:  Solving for p, Initial residual = 0.0358699, Final residual = 0.00166578, No Iterations 29
time step continuity errors : sum local = 1.74392e-07, global = -4.26291e-10, cumulative = 3.23232e-07
DICPCG:  Solving for p, Initial residual = 0.0256389, Final residual = 8.7224e-07, No Iterations 154
time step continuity errors : sum local = 9.16108e-11, global = 1.88392e-13, cumulative = 3.23232e-07
ExecutionTime = 1.3 s  ClockTime = 1 s

Time = 0.14

Courant Number mean: 0.074236 max: 2.32882
smoothSolver:  Solving for Ux, Initial residual = 0.00575017, Final residual = 9.29535e-06, No Iterations 6
smoothSolver:  Solving for Uy, Initial residual = 0.00805305, Final residual = 4.66732e-06, No Iterations 7
DICPCG:  Solving for p, Initial residual = 0.0330942, Final residual = 0.00158839, No Iterations 29
time step continuity errors : sum local = 1.67673e-07, global = -3.08026e-10, cumulative = 3.22924e-07
DICPCG:  Solving for p, Initial residual = 0.0238438, Final residual = 9.23938e-07, No Iterations 153
time step continuity errors : sum local = 9.77932e-11, global = 7.1209e-13, cumulative = 3.22925e-07
ExecutionTime = 1.38 s  ClockTime = 1 s

Time = 0.15

Courant Number mean: 0.0744016 max: 2.3342
smoothSolver:  Solving for Ux, Initial residual = 0.00542811, Final residual = 8.49479e-06, No Iterations 6
smoothSolver:  Solving for Uy, Initial residual = 0.00759491, Final residual = 4.23766e-06, No Iterations 7
DICPCG:  Solving for p, Initial residual = 0.0307492, Final residual = 0.00152201, No Iterations 29
time step continuity errors : sum local = 1.61871e-07, global = -2.75778e-10, cumulative = 3.22649e-07
DICPCG:  Solving for p, Initial residual = 0.0223254, Final residual = 9.31363e-07, No Iterations 153
time step continuity errors : sum local = 9.92717e-11, global = 1.00324e-12, cumulative = 3.2265e-07
ExecutionTime = 1.45 s  ClockTime = 1 s

Time = 0.16

Courant Number mean: 0.0745606 max: 2.33903
smoothSolver:  Solving for Ux, Initial residual = 0.00515043, Final residual = 7.80437e-06, No Iterations 6
smoothSolver:  Solving for Uy, Initial residual = 0.0071923, Final residual = 9.8736e-06, No Iterations 6
DICPCG:  Solving for p, Initial residual = 0.0287064, Final residual = 0.00131517, No Iterations 30
time step continuity errors : sum local = 1.40832e-07, global = -5.3798e-11, cumulative = 3.22596e-07
DICPCG:  Solving for p, Initial residual = 0.0207639, Final residual = 8.64864e-07, No Iterations 153
time step continuity errors : sum local = 9.27713e-11, global = 1.02554e-12, cumulative = 3.22597e-07
ExecutionTime = 1.53 s  ClockTime = 1 s

Time = 0.17

Courant Number mean: 0.0747145 max: 2.3434
smoothSolver:  Solving for Ux, Initial residual = 0.00490284, Final residual = 7.20189e-06, No Iterations 6
smoothSolver:  Solving for Uy, Initial residual = 0.00683057, Final residual = 9.06596e-06, No Iterations 6
DICPCG:  Solving for p, Initial residual = 0.0269038, Final residual = 0.00127954, No Iterations 30
time step continuity errors : sum local = 1.37846e-07, global = 3.59888e-11, cumulative = 3.22633e-07
DICPCG:  Solving for p, Initial residual = 0.0196696, Final residual = 8.20478e-07, No Iterations 153
time step continuity errors : sum local = 8.8528e-11, global = 1.06289e-12, cumulative = 3.22634e-07
ExecutionTime = 1.61 s  ClockTime = 1 s

Time = 0.18

Courant Number mean: 0.0748643 max: 2.34737
smoothSolver:  Solving for Ux, Initial residual = 0.00468496, Final residual = 6.67212e-06, No Iterations 6
smoothSolver:  Solving for Uy, Initial residual = 0.00650626, Final residual = 8.35087e-06, No Iterations 6
DICPCG:  Solving for p, Initial residual = 0.025382, Final residual = 0.00124841, No Iterations 30
time step continuity errors : sum local = 1.35261e-07, global = 8.02722e-11, cumulative = 3.22715e-07
DICPCG:  Solving for p, Initial residual = 0.0186058, Final residual = 9.41124e-07, No Iterations 152
time step continuity errors : sum local = 1.02092e-10, global = 1.7824e-12, cumulative = 3.22716e-07
ExecutionTime = 1.69 s  ClockTime = 1 s

Time = 0.19

Courant Number mean: 0.0750117 max: 2.35103
smoothSolver:  Solving for Ux, Initial residual = 0.00448886, Final residual = 6.20323e-06, No Iterations 6
smoothSolver:  Solving for Uy, Initial residual = 0.00621233, Final residual = 7.71619e-06, No Iterations 6
DICPCG:  Solving for p, Initial residual = 0.0239932, Final residual = 0.0010959, No Iterations 31
time step continuity errors : sum local = 1.19359e-07, global = 2.76473e-10, cumulative = 3.22993e-07
DICPCG:  Solving for p, Initial residual = 0.0175522, Final residual = 9.341e-07, No Iterations 152
time step continuity errors : sum local = 1.02063e-10, global = 1.90714e-12, cumulative = 3.22995e-07
ExecutionTime = 1.76 s  ClockTime = 1 s

Time = 0.2

Courant Number mean: 0.0751582 max: 2.35441
smoothSolver:  Solving for Ux, Initial residual = 0.00431176, Final residual = 5.78656e-06, No Iterations 6
smoothSolver:  Solving for Uy, Initial residual = 0.00594452, Final residual = 7.14978e-06, No Iterations 6
DICPCG:  Solving for p, Initial residual = 0.02273, Final residual = 0.00107662, No Iterations 31
time step continuity errors : sum local = 1.17895e-07, global = 2.18224e-10, cumulative = 3.23213e-07
DICPCG:  Solving for p, Initial residual = 0.0166702, Final residual = 8.65741e-07, No Iterations 152
time step continuity errors : sum local = 9.54631e-11, global = 1.66393e-12, cumulative = 3.23215e-07
ExecutionTime = 1.83 s  ClockTime = 1 s

Time = 0.21

Courant Number mean: 0.0753033 max: 2.35754
smoothSolver:  Solving for Ux, Initial residual = 0.00415185, Final residual = 5.41337e-06, No Iterations 6
smoothSolver:  Solving for Uy, Initial residual = 0.0057003, Final residual = 6.64186e-06, No Iterations 6
DICPCG:  Solving for p, Initial residual = 0.0215545, Final residual = 0.00104485, No Iterations 31
time step continuity errors : sum local = 1.15434e-07, global = 2.85712e-10, cumulative = 3.235e-07
DICPCG:  Solving for p, Initial residual = 0.0158565, Final residual = 8.52624e-07, No Iterations 152
time step continuity errors : sum local = 9.48233e-11, global = 1.78882e-12, cumulative = 3.23502e-07
ExecutionTime = 1.92 s  ClockTime = 2 s

Time = 0.22

Courant Number mean: 0.0754451 max: 2.36044
smoothSolver:  Solving for Ux, Initial residual = 0.00400524, Final residual = 5.07725e-06, No Iterations 6
smoothSolver:  Solving for Uy, Initial residual = 0.00547597, Final residual = 6.1851e-06, No Iterations 6
DICPCG:  Solving for p, Initial residual = 0.0205001, Final residual = 0.0010193, No Iterations 31
time step continuity errors : sum local = 1.13551e-07, global = 2.77021e-10, cumulative = 3.23779e-07
DICPCG:  Solving for p, Initial residual = 0.0150933, Final residual = 9.78479e-07, No Iterations 151
time step continuity errors : sum local = 1.09696e-10, global = 2.51036e-12, cumulative = 3.23782e-07
ExecutionTime = 1.99 s  ClockTime = 2 s

Time = 0.23

Courant Number mean: 0.075584 max: 2.36316
smoothSolver:  Solving for Ux, Initial residual = 0.00387054, Final residual = 4.77324e-06, No Iterations 6
smoothSolver:  Solving for Uy, Initial residual = 0.00527012, Final residual = 5.77306e-06, No Iterations 6
DICPCG:  Solving for p, Initial residual = 0.0195276, Final residual = 0.00094303, No Iterations 32
time step continuity errors : sum local = 1.05879e-07, global = 5.05785e-10, cumulative = 3.24287e-07
DICPCG:  Solving for p, Initial residual = 0.0143436, Final residual = 9.6069e-07, No Iterations 151
time step continuity errors : sum local = 1.08528e-10, global = 2.51381e-12, cumulative = 3.2429e-07
ExecutionTime = 2.06 s  ClockTime = 2 s

Time = 0.24

Courant Number mean: 0.0757207 max: 2.3657
smoothSolver:  Solving for Ux, Initial residual = 0.00374657, Final residual = 4.4983e-06, No Iterations 6
smoothSolver:  Solving for Uy, Initial residual = 0.00507971, Final residual = 5.40018e-06, No Iterations 6
DICPCG:  Solving for p, Initial residual = 0.0186242, Final residual = 0.000919562, No Iterations 32
time step continuity errors : sum local = 1.04022e-07, global = 3.81764e-10, cumulative = 3.24672e-07
DICPCG:  Solving for p, Initial residual = 0.0137329, Final residual = 9.11781e-07, No Iterations 151
time step continuity errors : sum local = 1.03753e-10, global = 2.32303e-12, cumulative = 3.24674e-07
ExecutionTime = 2.14 s  ClockTime = 2 s

Time = 0.25

Courant Number mean: 0.0758556 max: 2.36808
smoothSolver:  Solving for Ux, Initial residual = 0.00363214, Final residual = 4.24884e-06, No Iterations 6
smoothSolver:  Solving for Uy, Initial residual = 0.00490409, Final residual = 5.06165e-06, No Iterations 6
DICPCG:  Solving for p, Initial residual = 0.017814, Final residual = 0.000849286, No Iterations 37
time step continuity errors : sum local = 9.67457e-08, global = 3.29673e-09, cumulative = 3.27971e-07
DICPCG:  Solving for p, Initial residual = 0.0130485, Final residual = 9.91114e-07, No Iterations 150
time step continuity errors : sum local = 1.13549e-10, global = 2.85842e-12, cumulative = 3.27974e-07
ExecutionTime = 2.35 s  ClockTime = 2 s

Time = 0.26

Courant Number mean: 0.0759891 max: 2.37033
smoothSolver:  Solving for Ux, Initial residual = 0.0035237, Final residual = 4.02058e-06, No Iterations 6
smoothSolver:  Solving for Uy, Initial residual = 0.0047392, Final residual = 4.75344e-06, No Iterations 6
DICPCG:  Solving for p, Initial residual = 0.0170305, Final residual = 0.000842327, No Iterations 37
time step continuity errors : sum local = 9.65972e-08, global = 3.4089e-09, cumulative = 3.31383e-07
DICPCG:  Solving for p, Initial residual = 0.0125695, Final residual = 9.40035e-07, No Iterations 150
time step continuity errors : sum local = 1.08399e-10, global = 2.53955e-12, cumulative = 3.31385e-07
ExecutionTime = 2.43 s  ClockTime = 2 s

Time = 0.27

Courant Number mean: 0.0761218 max: 2.37246
smoothSolver:  Solving for Ux, Initial residual = 0.003425, Final residual = 9.86997e-06, No Iterations 5
smoothSolver:  Solving for Uy, Initial residual = 0.00458786, Final residual = 4.47187e-06, No Iterations 6
DICPCG:  Solving for p, Initial residual = 0.016301, Final residual = 0.000788104, No Iterations 37
time step continuity errors : sum local = 9.09473e-08, global = 3.3848e-09, cumulative = 3.3477e-07
DICPCG:  Solving for p, Initial residual = 0.0120098, Final residual = 8.70065e-07, No Iterations 150
time step continuity errors : sum local = 1.00941e-10, global = 1.99918e-12, cumulative = 3.34772e-07
ExecutionTime = 2.5 s  ClockTime = 2 s

Time = 0.28

Courant Number mean: 0.0762546 max: 2.37447
smoothSolver:  Solving for Ux, Initial residual = 0.00333099, Final residual = 9.39653e-06, No Iterations 5
smoothSolver:  Solving for Uy, Initial residual = 0.00444419, Final residual = 4.21368e-06, No Iterations 6
DICPCG:  Solving for p, Initial residual = 0.0156483, Final residual = 0.000776485, No Iterations 37
time step continuity errors : sum local = 9.01596e-08, global = 3.27718e-09, cumulative = 3.38049e-07
DICPCG:  Solving for p, Initial residual = 0.0115389, Final residual = 9.89369e-07, No Iterations 149
time step continuity errors : sum local = 1.15472e-10, global = 2.2098e-12, cumulative = 3.38051e-07
ExecutionTime = 2.58 s  ClockTime = 2 s

Time = 0.29

Courant Number mean: 0.0763857 max: 2.37639
smoothSolver:  Solving for Ux, Initial residual = 0.00324453, Final residual = 8.95533e-06, No Iterations 5
smoothSolver:  Solving for Uy, Initial residual = 0.00431238, Final residual = 3.97753e-06, No Iterations 6
DICPCG:  Solving for p, Initial residual = 0.0150605, Final residual = 0.000746663, No Iterations 37
time step continuity errors : sum local = 8.71924e-08, global = 3.37808e-09, cumulative = 3.41429e-07
DICPCG:  Solving for p, Initial residual = 0.011108, Final residual = 9.45472e-07, No Iterations 149
time step continuity errors : sum local = 1.10966e-10, global = 2.04308e-12, cumulative = 3.41431e-07
ExecutionTime = 2.65 s  ClockTime = 2 s

Time = 0.3

Courant Number mean: 0.0765154 max: 2.37821
smoothSolver:  Solving for Ux, Initial residual = 0.00316282, Final residual = 8.54638e-06, No Iterations 5
smoothSolver:  Solving for Uy, Initial residual = 0.00418835, Final residual = 3.76039e-06, No Iterations 6
DICPCG:  Solving for p, Initial residual = 0.014514, Final residual = 0.000659702, No Iterations 38
time step continuity errors : sum local = 7.74676e-08, global = 3.77297e-09, cumulative = 3.45204e-07
DICPCG:  Solving for p, Initial residual = 0.0106287, Final residual = 9.30382e-07, No Iterations 149
time step continuity errors : sum local = 1.09788e-10, global = 1.9869e-12, cumulative = 3.45206e-07
ExecutionTime = 2.73 s  ClockTime = 2 s

Time = 0.31

Courant Number mean: 0.0766433 max: 2.37994
smoothSolver:  Solving for Ux, Initial residual = 0.00308576, Final residual = 8.16581e-06, No Iterations 5
smoothSolver:  Solving for Uy, Initial residual = 0.00407223, Final residual = 9.66879e-06, No Iterations 5
DICPCG:  Solving for p, Initial residual = 0.0139493, Final residual = 0.000626254, No Iterations 38
time step continuity errors : sum local = 7.39332e-08, global = 3.74419e-09, cumulative = 3.48951e-07
DICPCG:  Solving for p, Initial residual = 0.010221, Final residual = 9.09282e-07, No Iterations 149
time step continuity errors : sum local = 1.07854e-10, global = 1.9504e-12, cumulative = 3.48952e-07
ExecutionTime = 2.8 s  ClockTime = 2 s

Time = 0.32

Courant Number mean: 0.07677 max: 2.3816
smoothSolver:  Solving for Ux, Initial residual = 0.00301226, Final residual = 7.81008e-06, No Iterations 5
smoothSolver:  Solving for Uy, Initial residual = 0.00396326, Final residual = 9.1918e-06, No Iterations 5
DICPCG:  Solving for p, Initial residual = 0.0134727, Final residual = 0.000615172, No Iterations 38
time step continuity errors : sum local = 7.29982e-08, global = 3.71235e-09, cumulative = 3.52665e-07
DICPCG:  Solving for p, Initial residual = 0.00988044, Final residual = 8.79395e-07, No Iterations 149
time step continuity errors : sum local = 1.0483e-10, global = 1.78516e-12, cumulative = 3.52667e-07
ExecutionTime = 2.88 s  ClockTime = 3 s

Time = 0.33

Courant Number mean: 0.0768958 max: 2.38318
smoothSolver:  Solving for Ux, Initial residual = 0.0029438, Final residual = 7.47894e-06, No Iterations 5
smoothSolver:  Solving for Uy, Initial residual = 0.00386139, Final residual = 8.74758e-06, No Iterations 5
DICPCG:  Solving for p, Initial residual = 0.0130365, Final residual = 0.000605328, No Iterations 38
time step continuity errors : sum local = 7.21828e-08, global = 3.70238e-09, cumulative = 3.56369e-07
DICPCG:  Solving for p, Initial residual = 0.00955705, Final residual = 8.54621e-07, No Iterations 149
time step continuity errors : sum local = 1.02363e-10, global = 1.70246e-12, cumulative = 3.56371e-07
ExecutionTime = 2.96 s  ClockTime = 3 s

Time = 0.34

Courant Number mean: 0.0770209 max: 2.3847
smoothSolver:  Solving for Ux, Initial residual = 0.00287876, Final residual = 7.16881e-06, No Iterations 5
smoothSolver:  Solving for Uy, Initial residual = 0.00376551, Final residual = 8.33503e-06, No Iterations 5
DICPCG:  Solving for p, Initial residual = 0.012623, Final residual = 0.000581916, No Iterations 38
time step continuity errors : sum local = 6.97193e-08, global = 3.69502e-09, cumulative = 3.60066e-07
DICPCG:  Solving for p, Initial residual = 0.00924377, Final residual = 8.38605e-07, No Iterations 149
time step continuity errors : sum local = 1.00908e-10, global = 1.58129e-12, cumulative = 3.60067e-07
ExecutionTime = 3.03 s  ClockTime = 3 s

Time = 0.35

Courant Number mean: 0.0771452 max: 2.38615
smoothSolver:  Solving for Ux, Initial residual = 0.0028171, Final residual = 6.87822e-06, No Iterations 5
smoothSolver:  Solving for Uy, Initial residual = 0.00367536, Final residual = 7.95114e-06, No Iterations 5
DICPCG:  Solving for p, Initial residual = 0.0122327, Final residual = 0.000565222, No Iterations 38
time step continuity errors : sum local = 6.80272e-08, global = 3.67699e-09, cumulative = 3.63744e-07
DICPCG:  Solving for p, Initial residual = 0.00894927, Final residual = 9.90698e-07, No Iterations 148
time step continuity errors : sum local = 1.19739e-10, global = 1.56125e-12, cumulative = 3.63746e-07
ExecutionTime = 3.1 s  ClockTime = 3 s

Time = 0.36

Courant Number mean: 0.0772694 max: 2.38754
smoothSolver:  Solving for Ux, Initial residual = 0.00275839, Final residual = 6.60537e-06, No Iterations 5
smoothSolver:  Solving for Uy, Initial residual = 0.00359059, Final residual = 7.59351e-06, No Iterations 5
DICPCG:  Solving for p, Initial residual = 0.0118724, Final residual = 0.000565323, No Iterations 38
time step continuity errors : sum local = 6.83389e-08, global = 3.64177e-09, cumulative = 3.67388e-07
DICPCG:  Solving for p, Initial residual = 0.00869549, Final residual = 9.6828e-07, No Iterations 148
time step continuity errors : sum local = 1.17536e-10, global = 1.48742e-12, cumulative = 3.67389e-07
ExecutionTime = 3.19 s  ClockTime = 3 s

Time = 0.37

Courant Number mean: 0.0773935 max: 2.38888
smoothSolver:  Solving for Ux, Initial residual = 0.00270239, Final residual = 6.34859e-06, No Iterations 5
smoothSolver:  Solving for Uy, Initial residual = 0.00351072, Final residual = 7.25976e-06, No Iterations 5
DICPCG:  Solving for p, Initial residual = 0.0115342, Final residual = 0.000548246, No Iterations 38
time step continuity errors : sum local = 6.65574e-08, global = 3.62322e-09, cumulative = 3.71012e-07
DICPCG:  Solving for p, Initial residual = 0.00843769, Final residual = 9.45836e-07, No Iterations 148
time step continuity errors : sum local = 1.15288e-10, global = 1.42462e-12, cumulative = 3.71014e-07
ExecutionTime = 3.26 s  ClockTime = 3 s

Time = 0.38

Courant Number mean: 0.0775165 max: 2.39017
smoothSolver:  Solving for Ux, Initial residual = 0.0026492, Final residual = 6.10659e-06, No Iterations 5
smoothSolver:  Solving for Uy, Initial residual = 0.00343495, Final residual = 6.94791e-06, No Iterations 5
DICPCG:  Solving for p, Initial residual = 0.0112151, Final residual = 0.000551089, No Iterations 38
time step continuity errors : sum local = 6.71789e-08, global = 3.58982e-09, cumulative = 3.74604e-07
DICPCG:  Solving for p, Initial residual = 0.00820893, Final residual = 9.13474e-07, No Iterations 148
time step continuity errors : sum local = 1.11793e-10, global = 1.35295e-12, cumulative = 3.74605e-07
ExecutionTime = 3.33 s  ClockTime = 3 s

Time = 0.39

Courant Number mean: 0.0776389 max: 2.39141
smoothSolver:  Solving for Ux, Initial residual = 0.00259861, Final residual = 5.87816e-06, No Iterations 5
smoothSolver:  Solving for Uy, Initial residual = 0.00336325, Final residual = 6.65602e-06, No Iterations 5
DICPCG:  Solving for p, Initial residual = 0.0109122, Final residual = 0.000531592, No Iterations 38
time step continuity errors : sum local = 6.50623e-08, global = 3.57771e-09, cumulative = 3.78183e-07
DICPCG:  Solving for p, Initial residual = 0.00797701, Final residual = 8.82841e-07, No Iterations 148
time step continuity errors : sum local = 1.0847e-10, global = 1.2922e-12, cumulative = 3.78184e-07
ExecutionTime = 3.41 s  ClockTime = 3 s

Time = 0.4

Courant Number mean: 0.0777602 max: 2.39261
smoothSolver:  Solving for Ux, Initial residual = 0.00255038, Final residual = 5.66229e-06, No Iterations 5
smoothSolver:  Solving for Uy, Initial residual = 0.00329509, Final residual = 6.3825e-06, No Iterations 5
DICPCG:  Solving for p, Initial residual = 0.0106236, Final residual = 0.000449756, No Iterations 39
time step continuity errors : sum local = 5.52625e-08, global = 3.76548e-09, cumulative = 3.81949e-07
DICPCG:  Solving for p, Initial residual = 0.00770102, Final residual = 9.98176e-07, No Iterations 147
time step continuity errors : sum local = 1.23113e-10, global = 1.44015e-12, cumulative = 3.81951e-07
ExecutionTime = 3.48 s  ClockTime = 3 s

Time = 0.41

Courant Number mean: 0.0778807 max: 2.39376
smoothSolver:  Solving for Ux, Initial residual = 0.00250397, Final residual = 5.45802e-06, No Iterations 5
smoothSolver:  Solving for Uy, Initial residual = 0.00323009, Final residual = 6.12589e-06, No Iterations 5
DICPCG:  Solving for p, Initial residual = 0.0103341, Final residual = 0.000495264, No Iterations 38
time step continuity errors : sum local = 6.10855e-08, global = 3.53933e-09, cumulative = 3.8549e-07
DICPCG:  Solving for p, Initial residual = 0.00753081, Final residual = 9.64173e-07, No Iterations 147
time step continuity errors : sum local = 1.1936e-10, global = 1.28797e-12, cumulative = 3.85491e-07
ExecutionTime = 3.56 s  ClockTime = 3 s

Time = 0.42

Courant Number mean: 0.0780005 max: 2.39488
smoothSolver:  Solving for Ux, Initial residual = 0.00245968, Final residual = 5.26446e-06, No Iterations 5
smoothSolver:  Solving for Uy, Initial residual = 0.00316844, Final residual = 5.88465e-06, No Iterations 5
DICPCG:  Solving for p, Initial residual = 0.0100928, Final residual = 0.000434397, No Iterations 39
time step continuity errors : sum local = 5.37741e-08, global = 3.74328e-09, cumulative = 3.89235e-07
DICPCG:  Solving for p, Initial residual = 0.00732005, Final residual = 9.27558e-07, No Iterations 147
time step continuity errors : sum local = 1.15241e-10, global = 1.32852e-12, cumulative = 3.89236e-07
ExecutionTime = 3.64 s  ClockTime = 3 s

Time = 0.43

Courant Number mean: 0.0781199 max: 2.39596
smoothSolver:  Solving for Ux, Initial residual = 0.00241684, Final residual = 5.08093e-06, No Iterations 5
smoothSolver:  Solving for Uy, Initial residual = 0.00310941, Final residual = 5.65781e-06, No Iterations 5
DICPCG:  Solving for p, Initial residual = 0.00983791, Final residual = 0.000427731, No Iterations 39
time step continuity errors : sum local = 5.31394e-08, global = 3.66787e-09, cumulative = 3.92904e-07
DICPCG:  Solving for p, Initial residual = 0.00712908, Final residual = 9.10146e-07, No Iterations 147
time step continuity errors : sum local = 1.13476e-10, global = 1.23542e-12, cumulative = 3.92905e-07
ExecutionTime = 3.71 s  ClockTime = 3 s

Time = 0.44

Courant Number mean: 0.078239 max: 2.397
smoothSolver:  Solving for Ux, Initial residual = 0.0023761, Final residual = 4.90662e-06, No Iterations 5
smoothSolver:  Solving for Uy, Initial residual = 0.00305343, Final residual = 5.44416e-06, No Iterations 5
DICPCG:  Solving for p, Initial residual = 0.00960872, Final residual = 0.000479903, No Iterations 38
time step continuity errors : sum local = 5.98282e-08, global = 3.49894e-09, cumulative = 3.96404e-07
DICPCG:  Solving for p, Initial residual = 0.00699332, Final residual = 8.7308e-07, No Iterations 147
time step continuity errors : sum local = 1.09225e-10, global = 1.12859e-12, cumulative = 3.96405e-07
ExecutionTime = 3.78 s  ClockTime = 3 s

Time = 0.45

Courant Number mean: 0.0783577 max: 2.39801
smoothSolver:  Solving for Ux, Initial residual = 0.00233697, Final residual = 4.74094e-06, No Iterations 5
smoothSolver:  Solving for Uy, Initial residual = 0.00300037, Final residual = 5.24266e-06, No Iterations 5
DICPCG:  Solving for p, Initial residual = 0.00940663, Final residual = 0.000408847, No Iterations 39
time step continuity errors : sum local = 5.1145e-08, global = 3.69139e-09, cumulative = 4.00097e-07
DICPCG:  Solving for p, Initial residual = 0.00679982, Final residual = 8.46524e-07, No Iterations 147
time step continuity errors : sum local = 1.06264e-10, global = 1.15223e-12, cumulative = 4.00098e-07
ExecutionTime = 3.86 s  ClockTime = 4 s

Time = 0.46

Courant Number mean: 0.0784765 max: 2.39899
smoothSolver:  Solving for Ux, Initial residual = 0.00229909, Final residual = 4.58335e-06, No Iterations 5
smoothSolver:  Solving for Uy, Initial residual = 0.00294959, Final residual = 5.05264e-06, No Iterations 5
DICPCG:  Solving for p, Initial residual = 0.00919174, Final residual = 0.00040322, No Iterations 39
time step continuity errors : sum local = 5.06131e-08, global = 3.63015e-09, cumulative = 4.03728e-07
DICPCG:  Solving for p, Initial residual = 0.00664126, Final residual = 9.68653e-07, No Iterations 146
time step continuity errors : sum local = 1.22002e-10, global = 9.19581e-13, cumulative = 4.03729e-07
ExecutionTime = 3.94 s  ClockTime = 4 s

Time = 0.47

Courant Number mean: 0.078595 max: 2.39995
smoothSolver:  Solving for Ux, Initial residual = 0.00226281, Final residual = 4.43323e-06, No Iterations 5
smoothSolver:  Solving for Uy, Initial residual = 0.00290136, Final residual = 4.87302e-06, No Iterations 5
DICPCG:  Solving for p, Initial residual = 0.00899834, Final residual = 0.000407233, No Iterations 39
time step continuity errors : sum local = 5.12871e-08, global = 3.62019e-09, cumulative = 4.07349e-07
DICPCG:  Solving for p, Initial residual = 0.00649917, Final residual = 9.32944e-07, No Iterations 146
time step continuity errors : sum local = 1.17892e-10, global = 8.90102e-13, cumulative = 4.0735e-07
ExecutionTime = 4.01 s  ClockTime = 4 s

Time = 0.48

Courant Number mean: 0.0787127 max: 2.40087
smoothSolver:  Solving for Ux, Initial residual = 0.00222804, Final residual = 4.29016e-06, No Iterations 5
smoothSolver:  Solving for Uy, Initial residual = 0.00285536, Final residual = 4.7031e-06, No Iterations 5
DICPCG:  Solving for p, Initial residual = 0.00881692, Final residual = 0.000393145, No Iterations 39
time step continuity errors : sum local = 4.96761e-08, global = 3.60094e-09, cumulative = 4.10951e-07
DICPCG:  Solving for p, Initial residual = 0.00635064, Final residual = 9.01504e-07, No Iterations 146
time step continuity errors : sum local = 1.14289e-10, global = 8.51414e-13, cumulative = 4.10952e-07
ExecutionTime = 4.08 s  ClockTime = 4 s

Time = 0.49

Courant Number mean: 0.0788299 max: 2.40177
smoothSolver:  Solving for Ux, Initial residual = 0.00219463, Final residual = 4.15365e-06, No Iterations 5
smoothSolver:  Solving for Uy, Initial residual = 0.0028116, Final residual = 4.54216e-06, No Iterations 5
DICPCG:  Solving for p, Initial residual = 0.00863852, Final residual = 0.000398734, No Iterations 39
time step continuity errors : sum local = 5.0545e-08, global = 3.58285e-09, cumulative = 4.14535e-07
DICPCG:  Solving for p, Initial residual = 0.00622509, Final residual = 8.53097e-07, No Iterations 146
time step continuity errors : sum local = 1.08495e-10, global = 8.27568e-13, cumulative = 4.14535e-07
ExecutionTime = 4.16 s  ClockTime = 4 s

Time = 0.5

Courant Number mean: 0.0789467 max: 2.40264
smoothSolver:  Solving for Ux, Initial residual = 0.00216235, Final residual = 4.0233e-06, No Iterations 5
smoothSolver:  Solving for Uy, Initial residual = 0.00276979, Final residual = 4.38969e-06, No Iterations 5
DICPCG:  Solving for p, Initial residual = 0.00847164, Final residual = 0.000390754, No Iterations 39
time step continuity errors : sum local = 4.96902e-08, global = 3.55895e-09, cumulative = 4.18094e-07
DICPCG:  Solving for p, Initial residual = 0.00609099, Final residual = 8.34362e-07, No Iterations 146
time step continuity errors : sum local = 1.06445e-10, global = 8.04034e-13, cumulative = 4.18095e-07
ExecutionTime = 4.36 s  ClockTime = 4 s

Time = 0.51

Courant Number mean: 0.0790629 max: 2.40349
smoothSolver:  Solving for Ux, Initial residual = 0.00213119, Final residual = 3.89875e-06, No Iterations 5
smoothSolver:  Solving for Uy, Initial residual = 0.00272989, Final residual = 4.24506e-06, No Iterations 5
DICPCG:  Solving for p, Initial residual = 0.00830862, Final residual = 0.000384569, No Iterations 39
time step continuity errors : sum local = 4.90563e-08, global = 3.55562e-09, cumulative = 4.21651e-07
DICPCG:  Solving for p, Initial residual = 0.00596851, Final residual = 8.08082e-07, No Iterations 146
time step continuity errors : sum local = 1.03409e-10, global = 7.56885e-13, cumulative = 4.21652e-07
ExecutionTime = 4.44 s  ClockTime = 4 s

Time = 0.52

Courant Number mean: 0.0791788 max: 2.40432
smoothSolver:  Solving for Ux, Initial residual = 0.00210116, Final residual = 3.77964e-06, No Iterations 5
smoothSolver:  Solving for Uy, Initial residual = 0.00269147, Final residual = 4.10775e-06, No Iterations 5
DICPCG:  Solving for p, Initial residual = 0.00815462, Final residual = 0.000381704, No Iterations 39
time step continuity errors : sum local = 4.88403e-08, global = 3.53192e-09, cumulative = 4.25183e-07
DICPCG:  Solving for p, Initial residual = 0.00584908, Final residual = 9.73781e-07, No Iterations 145
time step continuity errors : sum local = 1.24991e-10, global = 8.57261e-13, cumulative = 4.25184e-07
ExecutionTime = 4.52 s  ClockTime = 4 s

Time = 0.53

Courant Number mean: 0.0792941 max: 2.40512
smoothSolver:  Solving for Ux, Initial residual = 0.00207217, Final residual = 3.66562e-06, No Iterations 5
smoothSolver:  Solving for Uy, Initial residual = 0.00265449, Final residual = 3.97728e-06, No Iterations 5
DICPCG:  Solving for p, Initial residual = 0.00800581, Final residual = 0.000379911, No Iterations 39
time step continuity errors : sum local = 4.87596e-08, global = 3.51899e-09, cumulative = 4.28703e-07
DICPCG:  Solving for p, Initial residual = 0.00573588, Final residual = 9.34479e-07, No Iterations 145
time step continuity errors : sum local = 1.2031e-10, global = 8.30697e-13, cumulative = 4.28704e-07
ExecutionTime = 4.59 s  ClockTime = 4 s

Time = 0.54

Courant Number mean: 0.079409 max: 2.40591
smoothSolver:  Solving for Ux, Initial residual = 0.0020443, Final residual = 9.91882e-06, No Iterations 4
smoothSolver:  Solving for Uy, Initial residual = 0.00261894, Final residual = 3.85319e-06, No Iterations 5
DICPCG:  Solving for p, Initial residual = 0.00789205, Final residual = 0.000343037, No Iterations 39
time step continuity errors : sum local = 4.41576e-08, global = 3.54724e-09, cumulative = 4.32251e-07
DICPCG:  Solving for p, Initial residual = 0.00567327, Final residual = 9.58938e-07, No Iterations 145
time step continuity errors : sum local = 1.23816e-10, global = 6.29687e-13, cumulative = 4.32252e-07
ExecutionTime = 4.66 s  ClockTime = 4 s

Time = 0.55

Courant Number mean: 0.0795238 max: 2.40667
smoothSolver:  Solving for Ux, Initial residual = 0.00201661, Final residual = 9.64888e-06, No Iterations 4
smoothSolver:  Solving for Uy, Initial residual = 0.00258264, Final residual = 3.73329e-06, No Iterations 5
DICPCG:  Solving for p, Initial residual = 0.0077284, Final residual = 0.000351502, No Iterations 39
time step continuity errors : sum local = 4.53888e-08, global = 3.34119e-09, cumulative = 4.35593e-07
DICPCG:  Solving for p, Initial residual = 0.0055611, Final residual = 9.07177e-07, No Iterations 145
time step continuity errors : sum local = 1.17497e-10, global = 3.34176e-13, cumulative = 4.35594e-07
ExecutionTime = 4.74 s  ClockTime = 4 s

Time = 0.56

Courant Number mean: 0.0796383 max: 2.40741
smoothSolver:  Solving for Ux, Initial residual = 0.00199097, Final residual = 9.38243e-06, No Iterations 4
smoothSolver:  Solving for Uy, Initial residual = 0.00255024, Final residual = 3.621e-06, No Iterations 5
DICPCG:  Solving for p, Initial residual = 0.00759117, Final residual = 0.000345181, No Iterations 39
time step continuity errors : sum local = 4.47002e-08, global = 3.43881e-09, cumulative = 4.39032e-07
DICPCG:  Solving for p, Initial residual = 0.00545722, Final residual = 8.83292e-07, No Iterations 145
time step continuity errors : sum local = 1.1473e-10, global = 3.5075e-13, cumulative = 4.39033e-07
ExecutionTime = 4.82 s  ClockTime = 5 s

Time = 0.57

Courant Number mean: 0.0797532 max: 2.40813
smoothSolver:  Solving for Ux, Initial residual = 0.00196576, Final residual = 9.1272e-06, No Iterations 4
smoothSolver:  Solving for Uy, Initial residual = 0.00251877, Final residual = 3.51372e-06, No Iterations 5
DICPCG:  Solving for p, Initial residual = 0.00746382, Final residual = 0.000347804, No Iterations 39
time step continuity errors : sum local = 4.51725e-08, global = 3.38078e-09, cumulative = 4.42413e-07
DICPCG:  Solving for p, Initial residual = 0.00536059, Final residual = 8.56551e-07, No Iterations 145
time step continuity errors : sum local = 1.1158e-10, global = 3.11635e-13, cumulative = 4.42414e-07
ExecutionTime = 4.89 s  ClockTime = 5 s

Time = 0.58

Courant Number mean: 0.0798675 max: 2.40884
smoothSolver:  Solving for Ux, Initial residual = 0.00194155, Final residual = 8.88143e-06, No Iterations 4
smoothSolver:  Solving for Uy, Initial residual = 0.00248862, Final residual = 9.92818e-06, No Iterations 4
DICPCG:  Solving for p, Initial residual = 0.00730016, Final residual = 0.000328907, No Iterations 39
time step continuity errors : sum local = 4.28417e-08, global = 3.28624e-09, cumulative = 4.457e-07
DICPCG:  Solving for p, Initial residual = 0.00522007, Final residual = 8.44537e-07, No Iterations 145
time step continuity errors : sum local = 1.10326e-10, global = 8.46783e-13, cumulative = 4.45701e-07
ExecutionTime = 4.96 s  ClockTime = 5 s

Time = 0.59

Courant Number mean: 0.0799812 max: 2.40953
smoothSolver:  Solving for Ux, Initial residual = 0.00191725, Final residual = 8.64179e-06, No Iterations 4
smoothSolver:  Solving for Uy, Initial residual = 0.00245949, Final residual = 9.66276e-06, No Iterations 4
DICPCG:  Solving for p, Initial residual = 0.00716887, Final residual = 0.000330477, No Iterations 39
time step continuity errors : sum local = 4.31693e-08, global = 3.27246e-09, cumulative = 4.48973e-07
DICPCG:  Solving for p, Initial residual = 0.0051239, Final residual = 9.91324e-07, No Iterations 144
time step continuity errors : sum local = 1.29866e-10, global = 8.37749e-13, cumulative = 4.48974e-07
ExecutionTime = 5.04 s  ClockTime = 5 s

Time = 0.6

Courant Number mean: 0.0800944 max: 2.41022
smoothSolver:  Solving for Ux, Initial residual = 0.00189469, Final residual = 8.4148e-06, No Iterations 4
smoothSolver:  Solving for Uy, Initial residual = 0.00243161, Final residual = 9.40384e-06, No Iterations 4
DICPCG:  Solving for p, Initial residual = 0.00705109, Final residual = 0.000327597, No Iterations 39
time step continuity errors : sum local = 4.2914e-08, global = 3.26809e-09, cumulative = 4.52242e-07
DICPCG:  Solving for p, Initial residual = 0.00503185, Final residual = 9.77222e-07, No Iterations 144
time step continuity errors : sum local = 1.2838e-10, global = 7.60627e-13, cumulative = 4.52243e-07
ExecutionTime = 5.12 s  ClockTime = 5 s

Time = 0.61

Courant Number mean: 0.0802073 max: 2.41088
smoothSolver:  Solving for Ux, Initial residual = 0.00187273, Final residual = 8.19565e-06, No Iterations 4
smoothSolver:  Solving for Uy, Initial residual = 0.0024048, Final residual = 9.15629e-06, No Iterations 4
DICPCG:  Solving for p, Initial residual = 0.006936, Final residual = 0.00032727, No Iterations 39
time step continuity errors : sum local = 4.29927e-08, global = 3.25701e-09, cumulative = 4.555e-07
DICPCG:  Solving for p, Initial residual = 0.00494521, Final residual = 9.49841e-07, No Iterations 144
time step continuity errors : sum local = 1.25133e-10, global = 7.52805e-13, cumulative = 4.55501e-07
ExecutionTime = 5.19 s  ClockTime = 5 s

Time = 0.62

Courant Number mean: 0.0803197 max: 2.41154
smoothSolver:  Solving for Ux, Initial residual = 0.00185153, Final residual = 7.98467e-06, No Iterations 4
smoothSolver:  Solving for Uy, Initial residual = 0.00237927, Final residual = 8.91889e-06, No Iterations 4
DICPCG:  Solving for p, Initial residual = 0.0068243, Final residual = 0.000317883, No Iterations 39
time step continuity errors : sum local = 4.18769e-08, global = 3.26287e-09, cumulative = 4.58764e-07
DICPCG:  Solving for p, Initial residual = 0.00485818, Final residual = 9.31874e-07, No Iterations 144
time step continuity errors : sum local = 1.23108e-10, global = 7.51525e-13, cumulative = 4.58764e-07
ExecutionTime = 5.26 s  ClockTime = 5 s

Time = 0.63

Courant Number mean: 0.0804324 max: 2.41218
smoothSolver:  Solving for Ux, Initial residual = 0.00183096, Final residual = 7.78122e-06, No Iterations 4
smoothSolver:  Solving for Uy, Initial residual = 0.00235482, Final residual = 8.69121e-06, No Iterations 4
DICPCG:  Solving for p, Initial residual = 0.00671461, Final residual = 0.00032221, No Iterations 39
time step continuity errors : sum local = 4.25657e-08, global = 3.25026e-09, cumulative = 4.62015e-07
DICPCG:  Solving for p, Initial residual = 0.00478137, Final residual = 9.17172e-07, No Iterations 144
time step continuity errors : sum local = 1.21502e-10, global = 7.19274e-13, cumulative = 4.62015e-07
ExecutionTime = 5.33 s  ClockTime = 5 s

Time = 0.64

Courant Number mean: 0.0805445 max: 2.41281
smoothSolver:  Solving for Ux, Initial residual = 0.00181098, Final residual = 7.5849e-06, No Iterations 4
smoothSolver:  Solving for Uy, Initial residual = 0.0023311, Final residual = 8.47276e-06, No Iterations 4
DICPCG:  Solving for p, Initial residual = 0.00660955, Final residual = 0.000315834, No Iterations 39
time step continuity errors : sum local = 4.18394e-08, global = 3.24371e-09, cumulative = 4.65259e-07
DICPCG:  Solving for p, Initial residual = 0.00469564, Final residual = 9.09953e-07, No Iterations 144
time step continuity errors : sum local = 1.20878e-10, global = 7.17952e-13, cumulative = 4.6526e-07
ExecutionTime = 5.4 s  ClockTime = 5 s

Time = 0.65

Courant Number mean: 0.0806566 max: 2.41343
smoothSolver:  Solving for Ux, Initial residual = 0.00179151, Final residual = 7.39539e-06, No Iterations 4
smoothSolver:  Solving for Uy, Initial residual = 0.0023082, Final residual = 8.26313e-06, No Iterations 4
DICPCG:  Solving for p, Initial residual = 0.0065044, Final residual = 0.000314699, No Iterations 39
time step continuity errors : sum local = 4.18043e-08, global = 3.24631e-09, cumulative = 4.68506e-07
DICPCG:  Solving for p, Initial residual = 0.00462173, Final residual = 9.9039e-07, No Iterations 143
time step continuity errors : sum local = 1.31926e-10, global = 4.84358e-13, cumulative = 4.68507e-07
ExecutionTime = 5.48 s  ClockTime = 5 s

Time = 0.66

Courant Number mean: 0.0807682 max: 2.41403
smoothSolver:  Solving for Ux, Initial residual = 0.00177262, Final residual = 7.21246e-06, No Iterations 4
smoothSolver:  Solving for Uy, Initial residual = 0.00228597, Final residual = 8.0618e-06, No Iterations 4
DICPCG:  Solving for p, Initial residual = 0.00640434, Final residual = 0.000309407, No Iterations 39
time step continuity errors : sum local = 4.12141e-08, global = 3.24085e-09, cumulative = 4.71747e-07
DICPCG:  Solving for p, Initial residual = 0.00454334, Final residual = 9.73348e-07, No Iterations 143
time step continuity errors : sum local = 1.30008e-10, global = 4.937e-13, cumulative = 4.71748e-07
ExecutionTime = 5.55 s  ClockTime = 5 s

Time = 0.67

Courant Number mean: 0.08088 max: 2.41463
smoothSolver:  Solving for Ux, Initial residual = 0.00175425, Final residual = 7.03578e-06, No Iterations 4
smoothSolver:  Solving for Uy, Initial residual = 0.00226438, Final residual = 7.86834e-06, No Iterations 4
DICPCG:  Solving for p, Initial residual = 0.0063046, Final residual = 0.000311448, No Iterations 39
time step continuity errors : sum local = 4.15987e-08, global = 3.23694e-09, cumulative = 4.74985e-07
DICPCG:  Solving for p, Initial residual = 0.00447446, Final residual = 9.62675e-07, No Iterations 143
time step continuity errors : sum local = 1.28929e-10, global = 5.05272e-13, cumulative = 4.74985e-07
ExecutionTime = 5.63 s  ClockTime = 5 s

Time = 0.68

Courant Number mean: 0.0809916 max: 2.41521
smoothSolver:  Solving for Ux, Initial residual = 0.00173636, Final residual = 6.86505e-06, No Iterations 4
smoothSolver:  Solving for Uy, Initial residual = 0.00224353, Final residual = 7.68246e-06, No Iterations 4
DICPCG:  Solving for p, Initial residual = 0.00620967, Final residual = 0.000304948, No Iterations 39
time step continuity errors : sum local = 4.08406e-08, global = 3.23153e-09, cumulative = 4.78217e-07
DICPCG:  Solving for p, Initial residual = 0.00439721, Final residual = 9.51746e-07, No Iterations 143
time step continuity errors : sum local = 1.27807e-10, global = 5.20319e-13, cumulative = 4.78217e-07
ExecutionTime = 5.7 s  ClockTime = 5 s

Time = 0.69

Courant Number mean: 0.0811033 max: 2.41579
smoothSolver:  Solving for Ux, Initial residual = 0.00171895, Final residual = 6.69997e-06, No Iterations 4
smoothSolver:  Solving for Uy, Initial residual = 0.00222345, Final residual = 7.50373e-06, No Iterations 4
DICPCG:  Solving for p, Initial residual = 0.00611421, Final residual = 0.000304261, No Iterations 39
time step continuity errors : sum local = 4.08589e-08, global = 3.23632e-09, cumulative = 4.81454e-07
DICPCG:  Solving for p, Initial residual = 0.0043323, Final residual = 9.44207e-07, No Iterations 143
time step continuity errors : sum local = 1.2714e-10, global = 5.32338e-13, cumulative = 4.81454e-07
ExecutionTime = 5.78 s  ClockTime = 5 s

Time = 0.7

Courant Number mean: 0.0812148 max: 2.41635
smoothSolver:  Solving for Ux, Initial residual = 0.00170204, Final residual = 6.5403e-06, No Iterations 4
smoothSolver:  Solving for Uy, Initial residual = 0.00220405, Final residual = 7.33169e-06, No Iterations 4
DICPCG:  Solving for p, Initial residual = 0.00602337, Final residual = 0.000300822, No Iterations 39
time step continuity errors : sum local = 4.05084e-08, global = 3.22808e-09, cumulative = 4.84682e-07
DICPCG:  Solving for p, Initial residual = 0.00426094, Final residual = 9.28905e-07, No Iterations 143
time step continuity errors : sum local = 1.25424e-10, global = 5.62513e-13, cumulative = 4.84683e-07
ExecutionTime = 5.85 s  ClockTime = 6 s

Time = 0.71

Courant Number mean: 0.0813259 max: 2.41691
smoothSolver:  Solving for Ux, Initial residual = 0.00168585, Final residual = 6.38586e-06, No Iterations 4
smoothSolver:  Solving for Uy, Initial residual = 0.00218518, Final residual = 7.16605e-06, No Iterations 4
DICPCG:  Solving for p, Initial residual = 0.00593201, Final residual = 0.00025731, No Iterations 40
time step continuity errors : sum local = 3.47451e-08, global = 3.41923e-09, cumulative = 4.88102e-07
DICPCG:  Solving for p, Initial residual = 0.00416175, Final residual = 9.12372e-07, No Iterations 143
time step continuity errors : sum local = 1.2353e-10, global = 6.02763e-13, cumulative = 4.88103e-07
ExecutionTime = 5.92 s  ClockTime = 6 s

Time = 0.72

Courant Number mean: 0.0814367 max: 2.41746
smoothSolver:  Solving for Ux, Initial residual = 0.00167017, Final residual = 6.23643e-06, No Iterations 4
smoothSolver:  Solving for Uy, Initial residual = 0.00216684, Final residual = 7.00652e-06, No Iterations 4
DICPCG:  Solving for p, Initial residual = 0.00583929, Final residual = 0.00025353, No Iterations 40
time step continuity errors : sum local = 3.43302e-08, global = 3.38249e-09, cumulative = 4.91485e-07
DICPCG:  Solving for p, Initial residual = 0.00409918, Final residual = 8.9828e-07, No Iterations 143
time step continuity errors : sum local = 1.21963e-10, global = 6.53048e-13, cumulative = 4.91486e-07
ExecutionTime = 5.99 s  ClockTime = 6 s

Time = 0.73

Courant Number mean: 0.0815472 max: 2.418
smoothSolver:  Solving for Ux, Initial residual = 0.00165495, Final residual = 6.0917e-06, No Iterations 4
smoothSolver:  Solving for Uy, Initial residual = 0.0021491, Final residual = 6.85276e-06, No Iterations 4
DICPCG:  Solving for p, Initial residual = 0.00575322, Final residual = 0.000252138, No Iterations 40
time step continuity errors : sum local = 3.42371e-08, global = 3.39032e-09, cumulative = 4.94876e-07
DICPCG:  Solving for p, Initial residual = 0.00403741, Final residual = 8.87196e-07, No Iterations 143
time step continuity errors : sum local = 1.20795e-10, global = 6.85818e-13, cumulative = 4.94877e-07
ExecutionTime = 6.06 s  ClockTime = 6 s

Time = 0.74

Courant Number mean: 0.0816574 max: 2.41853
smoothSolver:  Solving for Ux, Initial residual = 0.00164007, Final residual = 5.95162e-06, No Iterations 4
smoothSolver:  Solving for Uy, Initial residual = 0.002132, Final residual = 6.70451e-06, No Iterations 4
DICPCG:  Solving for p, Initial residual = 0.00566992, Final residual = 0.00024905, No Iterations 40
time step continuity errors : sum local = 3.39127e-08, global = 3.38328e-09, cumulative = 4.9826e-07
DICPCG:  Solving for p, Initial residual = 0.00397186, Final residual = 8.75545e-07, No Iterations 143
time step continuity errors : sum local = 1.19542e-10, global = 7.07093e-13, cumulative = 4.98261e-07
ExecutionTime = 6.13 s  ClockTime = 6 s

Time = 0.75

Courant Number mean: 0.0817675 max: 2.41905
smoothSolver:  Solving for Ux, Initial residual = 0.00162557, Final residual = 5.81596e-06, No Iterations 4
smoothSolver:  Solving for Uy, Initial residual = 0.00211545, Final residual = 6.56155e-06, No Iterations 4
DICPCG:  Solving for p, Initial residual = 0.00558632, Final residual = 0.000249304, No Iterations 40
time step continuity errors : sum local = 3.40426e-08, global = 3.37444e-09, cumulative = 5.01635e-07
DICPCG:  Solving for p, Initial residual = 0.00391214, Final residual = 8.66268e-07, No Iterations 143
time step continuity errors : sum local = 1.18606e-10, global = 7.43366e-13, cumulative = 5.01636e-07
ExecutionTime = 6.34 s  ClockTime = 6 s

Time = 0.76

Courant Number mean: 0.0818773 max: 2.41957
smoothSolver:  Solving for Ux, Initial residual = 0.00161145, Final residual = 5.68453e-06, No Iterations 4
smoothSolver:  Solving for Uy, Initial residual = 0.00209972, Final residual = 6.42357e-06, No Iterations 4
DICPCG:  Solving for p, Initial residual = 0.00550483, Final residual = 0.000246158, No Iterations 40
time step continuity errors : sum local = 3.3707e-08, global = 3.37468e-09, cumulative = 5.05011e-07
DICPCG:  Solving for p, Initial residual = 0.0038529, Final residual = 8.59545e-07, No Iterations 143
time step continuity errors : sum local = 1.18013e-10, global = 7.83166e-13, cumulative = 5.05012e-07
ExecutionTime = 6.41 s  ClockTime = 6 s

Time = 0.77

Courant Number mean: 0.081987 max: 2.42008
smoothSolver:  Solving for Ux, Initial residual = 0.00159767, Final residual = 5.55714e-06, No Iterations 4
smoothSolver:  Solving for Uy, Initial residual = 0.00208459, Final residual = 6.29033e-06, No Iterations 4
DICPCG:  Solving for p, Initial residual = 0.00542498, Final residual = 0.00024534, No Iterations 40
time step continuity errors : sum local = 3.36891e-08, global = 3.3632e-09, cumulative = 5.08375e-07
DICPCG:  Solving for p, Initial residual = 0.00379553, Final residual = 8.5117e-07, No Iterations 143
time step continuity errors : sum local = 1.17189e-10, global = 8.26927e-13, cumulative = 5.08376e-07
ExecutionTime = 6.49 s  ClockTime = 6 s

Time = 0.78

Courant Number mean: 0.0820967 max: 2.42058
smoothSolver:  Solving for Ux, Initial residual = 0.00158418, Final residual = 5.43362e-06, No Iterations 4
smoothSolver:  Solving for Uy, Initial residual = 0.00206981, Final residual = 6.16166e-06, No Iterations 4
DICPCG:  Solving for p, Initial residual = 0.00534664, Final residual = 0.000242727, No Iterations 40
time step continuity errors : sum local = 3.34237e-08, global = 3.36299e-09, cumulative = 5.11739e-07
DICPCG:  Solving for p, Initial residual = 0.00373816, Final residual = 8.42138e-07, No Iterations 143
time step continuity errors : sum local = 1.16268e-10, global = 8.62143e-13, cumulative = 5.11739e-07
ExecutionTime = 6.56 s  ClockTime = 7 s

Time = 0.79

Courant Number mean: 0.082206 max: 2.42107
smoothSolver:  Solving for Ux, Initial residual = 0.00157103, Final residual = 5.31381e-06, No Iterations 4
smoothSolver:  Solving for Uy, Initial residual = 0.00205539, Final residual = 6.03732e-06, No Iterations 4
DICPCG:  Solving for p, Initial residual = 0.0052696, Final residual = 0.000241428, No Iterations 40
time step continuity errors : sum local = 3.33376e-08, global = 3.35297e-09, cumulative = 5.15092e-07
DICPCG:  Solving for p, Initial residual = 0.00368431, Final residual = 8.31552e-07, No Iterations 143
time step continuity errors : sum local = 1.15126e-10, global = 9.12792e-13, cumulative = 5.15093e-07
ExecutionTime = 6.63 s  ClockTime = 7 s

Time = 0.8

Courant Number mean: 0.0823156 max: 2.42156
smoothSolver:  Solving for Ux, Initial residual = 0.00155821, Final residual = 5.19759e-06, No Iterations 4
smoothSolver:  Solving for Uy, Initial residual = 0.00204135, Final residual = 5.91709e-06, No Iterations 4
DICPCG:  Solving for p, Initial residual = 0.0051951, Final residual = 0.000239218, No Iterations 40
time step continuity errors : sum local = 3.31247e-08, global = 3.35146e-09, cumulative = 5.18445e-07
DICPCG:  Solving for p, Initial residual = 0.00362878, Final residual = 9.98197e-07, No Iterations 142
time step continuity errors : sum local = 1.38583e-10, global = 9.5808e-13, cumulative = 5.18446e-07
ExecutionTime = 6.71 s  ClockTime = 7 s

Time = 0.81

Courant Number mean: 0.0824248 max: 2.42204
smoothSolver:  Solving for Ux, Initial residual = 0.00154579, Final residual = 5.08481e-06, No Iterations 4
smoothSolver:  Solving for Uy, Initial residual = 0.00202762, Final residual = 5.80075e-06, No Iterations 4
DICPCG:  Solving for p, Initial residual = 0.00512119, Final residual = 0.000237581, No Iterations 40
time step continuity errors : sum local = 3.29898e-08, global = 3.34243e-09, cumulative = 5.21788e-07
DICPCG:  Solving for p, Initial residual = 0.0035781, Final residual = 9.87408e-07, No Iterations 142
time step continuity errors : sum local = 1.37467e-10, global = 1.01176e-12, cumulative = 5.21789e-07
ExecutionTime = 6.78 s  ClockTime = 7 s

Time = 0.82

Courant Number mean: 0.082534 max: 2.42252
smoothSolver:  Solving for Ux, Initial residual = 0.00153383, Final residual = 4.9753e-06, No Iterations 4
smoothSolver:  Solving for Uy, Initial residual = 0.00201419, Final residual = 5.68817e-06, No Iterations 4
DICPCG:  Solving for p, Initial residual = 0.00505031, Final residual = 0.000235797, No Iterations 40
time step continuity errors : sum local = 3.28336e-08, global = 3.34024e-09, cumulative = 5.25129e-07
DICPCG:  Solving for p, Initial residual = 0.00352432, Final residual = 9.72471e-07, No Iterations 142
time step continuity errors : sum local = 1.35765e-10, global = 1.06433e-12, cumulative = 5.2513e-07
ExecutionTime = 6.86 s  ClockTime = 7 s

Time = 0.83

Courant Number mean: 0.0826428 max: 2.42299
smoothSolver:  Solving for Ux, Initial residual = 0.00152224, Final residual = 4.86897e-06, No Iterations 4
smoothSolver:  Solving for Uy, Initial residual = 0.00200123, Final residual = 5.5792e-06, No Iterations 4
DICPCG:  Solving for p, Initial residual = 0.00498038, Final residual = 0.00023343, No Iterations 40
time step continuity errors : sum local = 3.25948e-08, global = 3.33184e-09, cumulative = 5.28462e-07
DICPCG:  Solving for p, Initial residual = 0.00347565, Final residual = 9.56702e-07, No Iterations 142
time step continuity errors : sum local = 1.33934e-10, global = 1.11904e-12, cumulative = 5.28463e-07
ExecutionTime = 6.93 s  ClockTime = 7 s

Time = 0.84

Courant Number mean: 0.0827512 max: 2.42345
smoothSolver:  Solving for Ux, Initial residual = 0.00151099, Final residual = 4.76571e-06, No Iterations 4
smoothSolver:  Solving for Uy, Initial residual = 0.00198865, Final residual = 5.47363e-06, No Iterations 4
DICPCG:  Solving for p, Initial residual = 0.00491439, Final residual = 0.000232391, No Iterations 40
time step continuity errors : sum local = 3.25394e-08, global = 3.32867e-09, cumulative = 5.31792e-07
DICPCG:  Solving for p, Initial residual = 0.00342415, Final residual = 9.47576e-07, No Iterations 142
time step continuity errors : sum local = 1.3302e-10, global = 1.17898e-12, cumulative = 5.31793e-07
ExecutionTime = 7 s  ClockTime = 7 s

Time = 0.85

Courant Number mean: 0.0828589 max: 2.42391
smoothSolver:  Solving for Ux, Initial residual = 0.00149998, Final residual = 4.66538e-06, No Iterations 4
smoothSolver:  Solving for Uy, Initial residual = 0.00197641, Final residual = 5.37136e-06, No Iterations 4
DICPCG:  Solving for p, Initial residual = 0.00484792, Final residual = 0.000229057, No Iterations 40
time step continuity errors : sum local = 3.21608e-08, global = 3.32108e-09, cumulative = 5.35114e-07
DICPCG:  Solving for p, Initial residual = 0.00337757, Final residual = 9.38146e-07, No Iterations 142
time step continuity errors : sum local = 1.32057e-10, global = 1.2263e-12, cumulative = 5.35116e-07
ExecutionTime = 7.07 s  ClockTime = 7 s

Time = 0.86

Courant Number mean: 0.0829666 max: 2.42437
smoothSolver:  Solving for Ux, Initial residual = 0.00148919, Final residual = 4.56789e-06, No Iterations 4
smoothSolver:  Solving for Uy, Initial residual = 0.00196443, Final residual = 5.27226e-06, No Iterations 4
DICPCG:  Solving for p, Initial residual = 0.00478478, Final residual = 0.000228862, No Iterations 40
time step continuity errors : sum local = 3.22219e-08, global = 3.31693e-09, cumulative = 5.38432e-07
DICPCG:  Solving for p, Initial residual = 0.00332814, Final residual = 8.93919e-07, No Iterations 142
time step continuity errors : sum local = 1.26177e-10, global = 1.2678e-12, cumulative = 5.38434e-07
ExecutionTime = 7.14 s  ClockTime = 7 s

Time = 0.87

Courant Number mean: 0.0830736 max: 2.42481
smoothSolver:  Solving for Ux, Initial residual = 0.00147862, Final residual = 4.47313e-06, No Iterations 4
smoothSolver:  Solving for Uy, Initial residual = 0.00195281, Final residual = 5.1762e-06, No Iterations 4
DICPCG:  Solving for p, Initial residual = 0.00472121, Final residual = 0.000225082, No Iterations 40
time step continuity errors : sum local = 3.17767e-08, global = 3.30988e-09, cumulative = 5.41744e-07
DICPCG:  Solving for p, Initial residual = 0.00328424, Final residual = 9.10728e-07, No Iterations 142
time step continuity errors : sum local = 1.289e-10, global = 1.31546e-12, cumulative = 5.41745e-07
ExecutionTime = 7.22 s  ClockTime = 7 s

Time = 0.88

Courant Number mean: 0.0831803 max: 2.42526
smoothSolver:  Solving for Ux, Initial residual = 0.00146826, Final residual = 4.38105e-06, No Iterations 4
smoothSolver:  Solving for Uy, Initial residual = 0.0019415, Final residual = 5.08297e-06, No Iterations 4
DICPCG:  Solving for p, Initial residual = 0.00466144, Final residual = 0.000225723, No Iterations 40
time step continuity errors : sum local = 3.19541e-08, global = 3.3048e-09, cumulative = 5.4505e-07
DICPCG:  Solving for p, Initial residual = 0.00323696, Final residual = 8.94652e-07, No Iterations 142
time step continuity errors : sum local = 1.26969e-10, global = 1.38058e-12, cumulative = 5.45051e-07
ExecutionTime = 7.29 s  ClockTime = 7 s

Time = 0.89

Courant Number mean: 0.0832868 max: 2.4257
smoothSolver:  Solving for Ux, Initial residual = 0.00145813, Final residual = 4.29154e-06, No Iterations 4
smoothSolver:  Solving for Uy, Initial residual = 0.00193053, Final residual = 4.9925e-06, No Iterations 4
DICPCG:  Solving for p, Initial residual = 0.00460117, Final residual = 0.000221987, No Iterations 40
time step continuity errors : sum local = 3.15103e-08, global = 3.29902e-09, cumulative = 5.4835e-07
DICPCG:  Solving for p, Initial residual = 0.00319505, Final residual = 8.79608e-07, No Iterations 142
time step continuity errors : sum local = 1.25169e-10, global = 1.41786e-12, cumulative = 5.48352e-07
ExecutionTime = 7.36 s  ClockTime = 7 s

Time = 0.9

Courant Number mean: 0.0833929 max: 2.42613
smoothSolver:  Solving for Ux, Initial residual = 0.00144825, Final residual = 4.20452e-06, No Iterations 4
smoothSolver:  Solving for Uy, Initial residual = 0.00191995, Final residual = 4.9047e-06, No Iterations 4
DICPCG:  Solving for p, Initial residual = 0.00454475, Final residual = 0.00022364, No Iterations 40
time step continuity errors : sum local = 3.18302e-08, global = 3.29186e-09, cumulative = 5.51643e-07
DICPCG:  Solving for p, Initial residual = 0.00314955, Final residual = 8.72512e-07, No Iterations 142
time step continuity errors : sum local = 1.2449e-10, global = 1.46125e-12, cumulative = 5.51645e-07
ExecutionTime = 7.43 s  ClockTime = 7 s

Time = 0.91

Courant Number mean: 0.0834986 max: 2.42657
smoothSolver:  Solving for Ux, Initial residual = 0.00143863, Final residual = 4.11987e-06, No Iterations 4
smoothSolver:  Solving for Uy, Initial residual = 0.0019098, Final residual = 4.81943e-06, No Iterations 4
DICPCG:  Solving for p, Initial residual = 0.00448727, Final residual = 0.000219205, No Iterations 40
time step continuity errors : sum local = 3.12817e-08, global = 3.28697e-09, cumulative = 5.54932e-07
DICPCG:  Solving for p, Initial residual = 0.00310862, Final residual = 9.98219e-07, No Iterations 141
time step continuity errors : sum local = 1.42801e-10, global = 1.64382e-12, cumulative = 5.54934e-07
ExecutionTime = 7.51 s  ClockTime = 7 s

Time = 0.92

Courant Number mean: 0.0836045 max: 2.427
smoothSolver:  Solving for Ux, Initial residual = 0.00142924, Final residual = 4.03751e-06, No Iterations 4
smoothSolver:  Solving for Uy, Initial residual = 0.00190003, Final residual = 4.73659e-06, No Iterations 4
DICPCG:  Solving for p, Initial residual = 0.00443289, Final residual = 0.000218951, No Iterations 40
time step continuity errors : sum local = 3.13277e-08, global = 3.27845e-09, cumulative = 5.58212e-07
DICPCG:  Solving for p, Initial residual = 0.00306364, Final residual = 9.63451e-07, No Iterations 141
time step continuity errors : sum local = 1.38186e-10, global = 1.64326e-12, cumulative = 5.58214e-07
ExecutionTime = 7.59 s  ClockTime = 8 s

Time = 0.93

Courant Number mean: 0.0837101 max: 2.42743
smoothSolver:  Solving for Ux, Initial residual = 0.00142012, Final residual = 3.95735e-06, No Iterations 4
smoothSolver:  Solving for Uy, Initial residual = 0.00189044, Final residual = 4.65604e-06, No Iterations 4
DICPCG:  Solving for p, Initial residual = 0.00437741, Final residual = 0.000215601, No Iterations 40
time step continuity errors : sum local = 3.09287e-08, global = 3.27545e-09, cumulative = 5.61489e-07
DICPCG:  Solving for p, Initial residual = 0.0030248, Final residual = 9.63323e-07, No Iterations 141
time step continuity errors : sum local = 1.38524e-10, global = 1.7051e-12, cumulative = 5.61491e-07
ExecutionTime = 7.65 s  ClockTime = 8 s

Time = 0.94

Courant Number mean: 0.0838154 max: 2.42786
smoothSolver:  Solving for Ux, Initial residual = 0.0014112, Final residual = 3.87933e-06, No Iterations 4
smoothSolver:  Solving for Uy, Initial residual = 0.00188099, Final residual = 4.57772e-06, No Iterations 4
DICPCG:  Solving for p, Initial residual = 0.0043254, Final residual = 0.000191211, No Iterations 41
time step continuity errors : sum local = 2.75008e-08, global = 3.30989e-09, cumulative = 5.64801e-07
DICPCG:  Solving for p, Initial residual = 0.00296216, Final residual = 9.95074e-07, No Iterations 141
time step continuity errors : sum local = 1.43458e-10, global = 1.77654e-12, cumulative = 5.64802e-07
ExecutionTime = 7.73 s  ClockTime = 8 s

Time = 0.95

Courant Number mean: 0.0839203 max: 2.42828
smoothSolver:  Solving for Ux, Initial residual = 0.00140254, Final residual = 3.8034e-06, No Iterations 4
smoothSolver:  Solving for Uy, Initial residual = 0.00187169, Final residual = 4.5015e-06, No Iterations 4
[...]

        p

    Reconstructing volVectorFields

        U

    Reconstructing surfaceScalarFields

        phi

Reconstructing point fields

No point fields

No lagrangian fields

Time = 5.75

Reconstructing FV fields

    Reconstructing volScalarFields

        p

    Reconstructing volVectorFields

        U

    Reconstructing surfaceScalarFields

        phi

Reconstructing point fields

No point fields

No lagrangian fields

Time = 6

Reconstructing FV fields

    Reconstructing volScalarFields

        p

    Reconstructing volVectorFields

        U

    Reconstructing surfaceScalarFields

        phi

Reconstructing point fields

No point fields

No lagrangian fields

Time = 6.25

Reconstructing FV fields

    Reconstructing volScalarFields

        p

    Reconstructing volVectorFields

        U

    Reconstructing surfaceScalarFields

        phi

Reconstructing point fields

No point fields

No lagrangian fields

Time = 6.5

Reconstructing FV fields

    Reconstructing volScalarFields

        p

    Reconstructing volVectorFields

        U

    Reconstructing surfaceScalarFields

        phi

Reconstructing point fields

No point fields

No lagrangian fields

Time = 6.75

Reconstructing FV fields

    Reconstructing volScalarFields

        p

    Reconstructing volVectorFields

        U

    Reconstructing surfaceScalarFields

        phi

Reconstructing point fields

No point fields

No lagrangian fields

Time = 7

Reconstructing FV fields

    Reconstructing volScalarFields

        p

    Reconstructing volVectorFields

        U

    Reconstructing surfaceScalarFields

        phi

Reconstructing point fields

No point fields

No lagrangian fields

Time = 7.25

Reconstructing FV fields

    Reconstructing volScalarFields

        p

    Reconstructing volVectorFields

        U

    Reconstructing surfaceScalarFields

        phi

Reconstructing point fields

No point fields

No lagrangian fields

Time = 7.5

Reconstructing FV fields

    Reconstructing volScalarFields

        p

    Reconstructing volVectorFields

        U

    Reconstructing surfaceScalarFields

        phi

Reconstructing point fields

No point fields

No lagrangian fields

Time = 7.75

Reconstructing FV fields

    Reconstructing volScalarFields

        p

    Reconstructing volVectorFields

        U

    Reconstructing surfaceScalarFields

        phi

Reconstructing point fields

No point fields

No lagrangian fields

Time = 8

Reconstructing FV fields

    Reconstructing volScalarFields

        p

    Reconstructing volVectorFields

        U

    Reconstructing surfaceScalarFields

        phi

Reconstructing point fields

No point fields

No lagrangian fields

Time = 8.25

Reconstructing FV fields

    Reconstructing volScalarFields

        p

    Reconstructing volVectorFields

        U

    Reconstructing surfaceScalarFields

        phi

Reconstructing point fields

No point fields

No lagrangian fields

Time = 8.5

Reconstructing FV fields

    Reconstructing volScalarFields

        p

    Reconstructing volVectorFields

        U

    Reconstructing surfaceScalarFields

        phi

Reconstructing point fields

No point fields

No lagrangian fields

Time = 8.75

Reconstructing FV fields

    Reconstructing volScalarFields

        p

    Reconstructing volVectorFields

        U

    Reconstructing surfaceScalarFields

        phi

Reconstructing point fields

No point fields

No lagrangian fields

Time = 9

Reconstructing FV fields

    Reconstructing volScalarFields

        p

    Reconstructing volVectorFields

        U

    Reconstructing surfaceScalarFields

        phi

Reconstructing point fields

No point fields

No lagrangian fields

Time = 9.25

Reconstructing FV fields

    Reconstructing volScalarFields

        p

    Reconstructing volVectorFields

        U

    Reconstructing surfaceScalarFields

        phi

Reconstructing point fields

No point fields

No lagrangian fields

Time = 9.5

Reconstructing FV fields

    Reconstructing volScalarFields

        p

    Reconstructing volVectorFields

        U

    Reconstructing surfaceScalarFields

        phi

Reconstructing point fields

No point fields

No lagrangian fields

Time = 9.75

Reconstructing FV fields

    Reconstructing volScalarFields

        p

    Reconstructing volVectorFields

        U

    Reconstructing surfaceScalarFields

        phi

Reconstructing point fields

No point fields

No lagrangian fields

Time = 10

Reconstructing FV fields

    Reconstructing volScalarFields

        p

    Reconstructing volVectorFields

        U

    Reconstructing surfaceScalarFields

        phi

Reconstructing point fields

No point fields

No lagrangian fields

Time = 10.25

Reconstructing FV fields

    Reconstructing volScalarFields

        p

    Reconstructing volVectorFields

        U

    Reconstructing surfaceScalarFields

        phi

Reconstructing point fields

No point fields

No lagrangian fields

Time = 10.5

Reconstructing FV fields

    Reconstructing volScalarFields

        p

    Reconstructing volVectorFields

        U

    Reconstructing surfaceScalarFields

        phi

Reconstructing point fields

No point fields

No lagrangian fields

Time = 10.75

Reconstructing FV fields

    Reconstructing volScalarFields

        p

    Reconstructing volVectorFields

        U

    Reconstructing surfaceScalarFields

        phi

Reconstructing point fields

No point fields

No lagrangian fields

Time = 11

Reconstructing FV fields

    Reconstructing volScalarFields

        p

    Reconstructing volVectorFields

        U

    Reconstructing surfaceScalarFields

        phi

Reconstructing point fields

No point fields

No lagrangian fields

Time = 11.25

Reconstructing FV fields

    Reconstructing volScalarFields

        p

    Reconstructing volVectorFields

        U

    Reconstructing surfaceScalarFields

        phi

Reconstructing point fields

No point fields

No lagrangian fields

Time = 11.5

Reconstructing FV fields

    Reconstructing volScalarFields

        p

    Reconstructing volVectorFields

        U

    Reconstructing surfaceScalarFields

        phi

Reconstructing point fields

No point fields

No lagrangian fields

Time = 11.75

Reconstructing FV fields

    Reconstructing volScalarFields

        p

    Reconstructing volVectorFields

        U

    Reconstructing surfaceScalarFields

        phi

Reconstructing point fields

No point fields

No lagrangian fields

Time = 12

Reconstructing FV fields

    Reconstructing volScalarFields

        p

    Reconstructing volVectorFields

        U

    Reconstructing surfaceScalarFields

        phi

Reconstructing point fields

No point fields

No lagrangian fields

Time = 12.25

Reconstructing FV fields

    Reconstructing volScalarFields

        p

    Reconstructing volVectorFields

        U

    Reconstructing surfaceScalarFields

        phi

Reconstructing point fields

No point fields

No lagrangian fields

Time = 12.5

Reconstructing FV fields

    Reconstructing volScalarFields

        p

    Reconstructing volVectorFields

        U

    Reconstructing surfaceScalarFields

        phi

Reconstructing point fields

No point fields

No lagrangian fields

Time = 12.75

Reconstructing FV fields

    Reconstructing volScalarFields

        p

    Reconstructing volVectorFields

        U

    Reconstructing surfaceScalarFields

        phi

Reconstructing point fields

No point fields

No lagrangian fields

Time = 13

Reconstructing FV fields

    Reconstructing volScalarFields

        p

    Reconstructing volVectorFields

        U

    Reconstructing surfaceScalarFields

        phi

Reconstructing point fields

No point fields

No lagrangian fields

Time = 13.25

Reconstructing FV fields

    Reconstructing volScalarFields

        p

    Reconstructing volVectorFields

        U

    Reconstructing surfaceScalarFields

        phi

Reconstructing point fields

No point fields

No lagrangian fields

Time = 13.5

Reconstructing FV fields

    Reconstructing volScalarFields

        p

    Reconstructing volVectorFields

        U

    Reconstructing surfaceScalarFields

        phi

Reconstructing point fields

No point fields

No lagrangian fields

Time = 13.75

Reconstructing FV fields

    Reconstructing volScalarFields

        p

    Reconstructing volVectorFields

        U

    Reconstructing surfaceScalarFields

        phi

Reconstructing point fields

No point fields

No lagrangian fields

Time = 14

Reconstructing FV fields

    Reconstructing volScalarFields

        p

    Reconstructing volVectorFields

        U

    Reconstructing surfaceScalarFields

        phi

Reconstructing point fields

No point fields

No lagrangian fields

Time = 14.25

Reconstructing FV fields

    Reconstructing volScalarFields

        p

    Reconstructing volVectorFields

        U

    Reconstructing surfaceScalarFields

        phi

Reconstructing point fields

No point fields

No lagrangian fields

Time = 14.5

Reconstructing FV fields

    Reconstructing volScalarFields

        p

    Reconstructing volVectorFields

        U

    Reconstructing surfaceScalarFields

        phi

Reconstructing point fields

No point fields

No lagrangian fields

Time = 14.75

Reconstructing FV fields

    Reconstructing volScalarFields

        p

    Reconstructing volVectorFields

        U

    Reconstructing surfaceScalarFields

        phi

Reconstructing point fields

No point fields

No lagrangian fields

Time = 15

Reconstructing FV fields

    Reconstructing volScalarFields

        p

    Reconstructing volVectorFields

        U

    Reconstructing surfaceScalarFields

        phi

Reconstructing point fields

No point fields

No lagrangian fields

Time = 15.25

Reconstructing FV fields

    Reconstructing volScalarFields

        p

    Reconstructing volVectorFields

        U

    Reconstructing surfaceScalarFields

        phi

Reconstructing point fields

No point fields

No lagrangian fields

Time = 15.5

Reconstructing FV fields

    Reconstructing volScalarFields

        p

    Reconstructing volVectorFields

        U

    Reconstructing surfaceScalarFields

        phi

Reconstructing point fields

No point fields

No lagrangian fields

Time = 15.75

Reconstructing FV fields

    Reconstructing volScalarFields

        p

    Reconstructing volVectorFields

        U

    Reconstructing surfaceScalarFields

        phi

Reconstructing point fields

No point fields

No lagrangian fields

Time = 16

Reconstructing FV fields

    Reconstructing volScalarFields

        p

    Reconstructing volVectorFields

        U

    Reconstructing surfaceScalarFields

        phi

Reconstructing point fields

No point fields

No lagrangian fields

Time = 16.25

Reconstructing FV fields

    Reconstructing volScalarFields

        p

    Reconstructing volVectorFields

        U

    Reconstructing surfaceScalarFields

        phi

Reconstructing point fields

No point fields

No lagrangian fields

Time = 16.5

Reconstructing FV fields

    Reconstructing volScalarFields

        p

    Reconstructing volVectorFields

        U

    Reconstructing surfaceScalarFields

        phi

Reconstructing point fields

No point fields

No lagrangian fields

Time = 16.75

Reconstructing FV fields

    Reconstructing volScalarFields

        p

    Reconstructing volVectorFields

        U

    Reconstructing surfaceScalarFields

        phi

Reconstructing point fields

No point fields

No lagrangian fields

Time = 17

Reconstructing FV fields

    Reconstructing volScalarFields

        p

    Reconstructing volVectorFields

        U

    Reconstructing surfaceScalarFields

        phi

Reconstructing point fields

No point fields

No lagrangian fields

Time = 17.25

Reconstructing FV fields

    Reconstructing volScalarFields

        p

    Reconstructing volVectorFields

        U

    Reconstructing surfaceScalarFields

        phi

Reconstructing point fields

No point fields

No lagrangian fields

Time = 17.5

Reconstructing FV fields

    Reconstructing volScalarFields

        p

    Reconstructing volVectorFields

        U

    Reconstructing surfaceScalarFields

        phi

Reconstructing point fields

No point fields

No lagrangian fields

Time = 17.75

Reconstructing FV fields

    Reconstructing volScalarFields

        p

    Reconstructing volVectorFields

        U

    Reconstructing surfaceScalarFields

        phi

Reconstructing point fields

No point fields

No lagrangian fields

Time = 18

Reconstructing FV fields

    Reconstructing volScalarFields

        p

    Reconstructing volVectorFields

        U

    Reconstructing surfaceScalarFields

        phi

Reconstructing point fields

No point fields

No lagrangian fields

Time = 18.25

Reconstructing FV fields

    Reconstructing volScalarFields

        p

    Reconstructing volVectorFields

        U

    Reconstructing surfaceScalarFields

        phi

Reconstructing point fields

No point fields

No lagrangian fields

Time = 18.5

Reconstructing FV fields

    Reconstructing volScalarFields

        p

    Reconstructing volVectorFields

        U

    Reconstructing surfaceScalarFields

        phi

Reconstructing point fields

No point fields

No lagrangian fields

Time = 18.75

Reconstructing FV fields

    Reconstructing volScalarFields

        p

    Reconstructing volVectorFields

        U

    Reconstructing surfaceScalarFields

        phi

Reconstructing point fields

No point fields

No lagrangian fields

Time = 19

Reconstructing FV fields

    Reconstructing volScalarFields

        p

    Reconstructing volVectorFields

        U

    Reconstructing surfaceScalarFields

        phi

Reconstructing point fields

No point fields

No lagrangian fields

Time = 19.25

Reconstructing FV fields

    Reconstructing volScalarFields

        p

    Reconstructing volVectorFields

        U

    Reconstructing surfaceScalarFields

        phi

Reconstructing point fields

No point fields

No lagrangian fields

Time = 19.5

Reconstructing FV fields

    Reconstructing volScalarFields

        p

    Reconstructing volVectorFields

        U

    Reconstructing surfaceScalarFields

        phi

Reconstructing point fields

No point fields

No lagrangian fields

Time = 19.75

Reconstructing FV fields

    Reconstructing volScalarFields

        p

    Reconstructing volVectorFields

        U

    Reconstructing surfaceScalarFields

        phi

Reconstructing point fields

No point fields

No lagrangian fields

Time = 20

Reconstructing FV fields

    Reconstructing volScalarFields

        p

    Reconstructing volVectorFields

        U

    Reconstructing surfaceScalarFields

        phi

Reconstructing point fields

No point fields

No lagrangian fields

Time = 20.25

Reconstructing FV fields

    Reconstructing volScalarFields

        p

    Reconstructing volVectorFields

        U

    Reconstructing surfaceScalarFields

        phi

Reconstructing point fields

No point fields

No lagrangian fields

Time = 20.5

Reconstructing FV fields

    Reconstructing volScalarFields

        p

    Reconstructing volVectorFields

        U

    Reconstructing surfaceScalarFields

        phi

Reconstructing point fields

No point fields

No lagrangian fields

Time = 20.75

Reconstructing FV fields

    Reconstructing volScalarFields

        p

    Reconstructing volVectorFields

        U

    Reconstructing surfaceScalarFields

        phi

Reconstructing point fields

No point fields

No lagrangian fields

Time = 21

Reconstructing FV fields

    Reconstructing volScalarFields

        p

    Reconstructing volVectorFields

        U

    Reconstructing surfaceScalarFields

        phi

Reconstructing point fields

No point fields

No lagrangian fields

Time = 21.25

Reconstructing FV fields

    Reconstructing volScalarFields

        p

    Reconstructing volVectorFields

        U

    Reconstructing surfaceScalarFields

        phi

Reconstructing point fields

No point fields

No lagrangian fields

Time = 21.5

Reconstructing FV fields

    Reconstructing volScalarFields

        p

    Reconstructing volVectorFields

        U

    Reconstructing surfaceScalarFields

        phi

Reconstructing point fields

No point fields

No lagrangian fields

Time = 21.75

Reconstructing FV fields

    Reconstructing volScalarFields

        p

    Reconstructing volVectorFields

        U

    Reconstructing surfaceScalarFields

        phi

Reconstructing point fields

No point fields

No lagrangian fields

Time = 22

Reconstructing FV fields

    Reconstructing volScalarFields

        p

    Reconstructing volVectorFields

        U

    Reconstructing surfaceScalarFields

        phi

Reconstructing point fields

No point fields

No lagrangian fields

Time = 22.25

Reconstructing FV fields

    Reconstructing volScalarFields

        p

    Reconstructing volVectorFields

        U

    Reconstructing surfaceScalarFields

        phi

Reconstructing point fields

No point fields

No lagrangian fields

Time = 22.5

Reconstructing FV fields

    Reconstructing volScalarFields

        p

    Reconstructing volVectorFields

        U

    Reconstructing surfaceScalarFields

        phi

Reconstructing point fields

No point fields

No lagrangian fields

Time = 22.75

Reconstructing FV fields

    Reconstructing volScalarFields

        p

    Reconstructing volVectorFields

        U

    Reconstructing surfaceScalarFields

        phi

Reconstructing point fields

No point fields

No lagrangian fields

Time = 23

Reconstructing FV fields

    Reconstructing volScalarFields

        p

    Reconstructing volVectorFields

        U

    Reconstructing surfaceScalarFields

        phi

Reconstructing point fields

No point fields

No lagrangian fields

Time = 23.25

Reconstructing FV fields

    Reconstructing volScalarFields

        p

    Reconstructing volVectorFields

        U

    Reconstructing surfaceScalarFields

        phi

Reconstructing point fields

No point fields

No lagrangian fields

Time = 23.5

Reconstructing FV fields

    Reconstructing volScalarFields

        p

    Reconstructing volVectorFields

        U

    Reconstructing surfaceScalarFields

        phi

Reconstructing point fields

No point fields

No lagrangian fields

Time = 23.75

Reconstructing FV fields

    Reconstructing volScalarFields

        p

    Reconstructing volVectorFields

        U

    Reconstructing surfaceScalarFields

        phi

Reconstructing point fields

No point fields

No lagrangian fields

Time = 24

Reconstructing FV fields

    Reconstructing volScalarFields

        p

    Reconstructing volVectorFields

        U

    Reconstructing surfaceScalarFields

        phi

Reconstructing point fields

No point fields

No lagrangian fields

Time = 24.25

Reconstructing FV fields

    Reconstructing volScalarFields

        p

    Reconstructing volVectorFields

        U

    Reconstructing surfaceScalarFields

        phi

Reconstructing point fields

No point fields

No lagrangian fields

Time = 24.5

Reconstructing FV fields

    Reconstructing volScalarFields

        p

    Reconstructing volVectorFields

        U

    Reconstructing surfaceScalarFields

        phi

Reconstructing point fields

No point fields

No lagrangian fields

Time = 24.75

Reconstructing FV fields

    Reconstructing volScalarFields

        p

    Reconstructing volVectorFields

        U

    Reconstructing surfaceScalarFields

        phi

Reconstructing point fields

No point fields

No lagrangian fields

Time = 25

Reconstructing FV fields

    Reconstructing volScalarFields

        p

    Reconstructing volVectorFields

        U

    Reconstructing surfaceScalarFields

        phi

Reconstructing point fields

No point fields

No lagrangian fields


End

