/work/05113/danieler/stampede2/CFD-Final-Project/circular-cylinder-10-10
Mon May 11 01:19:55 CDT 2020
/*---------------------------------------------------------------------------*\
  =========                 |
  \\      /  F ield         | OpenFOAM: The Open Source CFD Toolbox
   \\    /   O peration     | Website:  https://openfoam.org
    \\  /    A nd           | Version:  6.0
     \\/     M anipulation  |
\*---------------------------------------------------------------------------*/
Build  : 6.0
Exec   : blockMesh
Date   : May 11 2020
Time   : 01:19:56
Host   : "c442-001.stampede2.tacc.utexas.edu"
PID    : 137909
I/O    : uncollated
Case   : /work/05113/danieler/stampede2/CFD-Final-Project/circular-cylinder-10-10
nProcs : 1
sigFpe : Enabling floating point exception trapping (FOAM_SIGFPE).
fileModificationChecking : Monitoring run-time modified files using timeStampMaster (fileModificationSkew 10)
allowSystemOperations : Allowing user-supplied system call operations

// * * * * * * * * * * * * * * * * * * * * * * * * * * * * * * * * * * * * * //
Create time

Creating block mesh from
    "/work/05113/danieler/stampede2/CFD-Final-Project/circular-cylinder-10-10/system/blockMeshDict"
Creating block edges
No non-planar block faces defined
Creating topology blocks
Creating topology patches

Creating block mesh topology

Check topology

	Basic statistics
		Number of internal faces : 28
		Number of boundary faces : 64
		Number of defined boundary faces : 64
		Number of undefined boundary faces : 0
	Checking patch -> block consistency

Creating block offsets
Creating merge list .

Creating polyMesh from blockMesh
Creating points with scale 1
    Block 0 cell size :
        i : 0.05 .. 0.05
        j : 0.0392592 .. 0.0392592
        k : 1 .. 1

    Block 1 cell size :
        i : 0.0392592 .. 0.0392592
        j : 0.05 .. 0.05
        k : 1 .. 1

    Block 2 cell size :
        i : 0.0392592 .. 0.0392592
        j : 0.0499924 .. 0.0499924
        k : 1 .. 1

    Block 3 cell size :
        i : 0.05 .. 0.05
        j : 0.0785183 .. 0.0785183
        k : 1 .. 1

    Block 4 cell size :
        i : 0.0499924 .. 0.0499924
        j : 0.0785183 .. 0.0785183
        k : 1 .. 1

    Block 5 cell size :
        i : 0.0785183 .. 0.0785183
        j : 0.0499924 .. 0.0499924
        k : 1 .. 1

    Block 6 cell size :
        i : 0.0785183 .. 0.0785183
        j : 0.05 .. 0.05
        k : 1 .. 1

    Block 7 cell size :
        i : 0.0499924 .. 0.0499924
        j : 0.0392592 .. 0.0392592
        k : 1 .. 1

    Block 8 cell size :
        i : 0.26355 .. 1.0542
        j : 0.0785183 .. 0.0785183
        k : 1 .. 1

    Block 9 cell size :
        i : 0.270262 .. 1.08105
        j : 0.126864 .. 0.507457
        k : 1 .. 1

    Block 10 cell size :
        i : 0.0785183 .. 0.0785183
        j : 0.11356 .. 0.454238
        k : 1 .. 1

    Block 11 cell size :
        i : 0.0785183 .. 0.0785183
        j : 0.126864 .. 0.507457
        k : 1 .. 1

    Block 12 cell size :
        i : 0.27929 .. 0.27929
        j : 0.126864 .. 0.507457
        k : 1 .. 1

    Block 13 cell size :
        i : 0.25 .. 0.25
        j : 0.07071 .. 0.07071
        k : 1 .. 1

    Block 14 cell size :
        i : 0.27929 .. 0.27929
        j : 0.07071 .. 0.07071
        k : 1 .. 1

    Block 15 cell size :
        i : 0.27929 .. 0.27929
        j : 0.507457 .. 0.126864
        k : 1 .. 1

    Block 16 cell size :
        i : 0.07071 .. 0.07071
        j : 0.507457 .. 0.126864
        k : 1 .. 1

    Block 17 cell size :
        i : 0.07071 .. 0.07071
        j : 0.454238 .. 0.11356
        k : 1 .. 1

    Block 18 cell size :
        i : 0.270262 .. 1.08105
        j : 0.507457 .. 0.126864
        k : 1 .. 1

    Block 19 cell size :
        i : 0.270262 .. 1.08105
        j : 0.0785183 .. 0.0785183
        k : 1 .. 1

Creating cells
Creating patches

Writing polyMesh
----------------
Mesh Information
----------------
  boundingBox: (-3.5 -3.5 0) (12.5 3.5 1)
  nPoints: 5060
  nCells: 2400
  nFaces: 9730
  nInternalFaces: 4670
----------------
Patches
----------------
  patch 0 (start: 4670 size: 40) name: inlet
  patch 1 (start: 4710 size: 40) name: outlet
  patch 2 (start: 4750 size: 50) name: top
  patch 3 (start: 4800 size: 50) name: bottom
  patch 4 (start: 4850 size: 80) name: cylinder
  patch 5 (start: 4930 size: 4800) name: frontandback

End

/*---------------------------------------------------------------------------*\
  =========                 |
  \\      /  F ield         | OpenFOAM: The Open Source CFD Toolbox
   \\    /   O peration     | Website:  https://openfoam.org
    \\  /    A nd           | Version:  6.0
     \\/     M anipulation  |
\*---------------------------------------------------------------------------*/
Build  : 6.0
Exec   : checkMesh
Date   : May 11 2020
Time   : 01:19:57
Host   : "c442-001.stampede2.tacc.utexas.edu"
PID    : 137914
I/O    : uncollated
Case   : /work/05113/danieler/stampede2/CFD-Final-Project/circular-cylinder-10-10
nProcs : 1
sigFpe : Enabling floating point exception trapping (FOAM_SIGFPE).
fileModificationChecking : Monitoring run-time modified files using timeStampMaster (fileModificationSkew 10)
allowSystemOperations : Allowing user-supplied system call operations

// * * * * * * * * * * * * * * * * * * * * * * * * * * * * * * * * * * * * * //
Create time

Create polyMesh for time = 0

Time = 0

Mesh stats
    points:           5060
    internal points:  0
    faces:            9730
    internal faces:   4670
    cells:            2400
    faces per cell:   6
    boundary patches: 6
    point zones:      0
    face zones:       0
    cell zones:       0

Overall number of cells of each type:
    hexahedra:     2400
    prisms:        0
    wedges:        0
    pyramids:      0
    tet wedges:    0
    tetrahedra:    0
    polyhedra:     0

Checking topology...
    Boundary definition OK.
    Cell to face addressing OK.
    Point usage OK.
    Upper triangular ordering OK.
    Face vertices OK.
    Number of regions: 1 (OK).

Checking patch topology for multiply connected surfaces...
    Patch               Faces    Points   Surface topology                  
    inlet               40       82       ok (non-closed singly connected)  
    outlet              40       82       ok (non-closed singly connected)  
    top                 50       102      ok (non-closed singly connected)  
    bottom              50       102      ok (non-closed singly connected)  
    cylinder            80       160      ok (non-closed singly connected)  
    frontandback        4800     5060     ok (non-closed singly connected)  

Checking geometry...
    Overall domain bounding box (-3.5 -3.5 0) (12.5 3.5 1)
    Mesh has 2 geometric (non-empty/wedge) directions (1 1 0)
    Mesh has 2 solution (non-empty) directions (1 1 0)
    All edges aligned with or perpendicular to non-empty directions.
    Boundary openness (-1.63526e-18 9.40272e-18 -1.04237e-15) OK.
    Max cell openness = 2.18433e-16 OK.
    Max aspect ratio = 15.2885 OK.
    Minimum face area = 0.00205925. Maximum face area = 1.08105.  Face area magnitudes OK.
    Min volume = 0.00205925. Max volume = 0.548585.  Total volume = 111.215.  Cell volumes OK.
    Mesh non-orthogonality Max: 41.969 average: 11.2951
    Non-orthogonality check OK.
    Face pyramids OK.
    Max skewness = 0.47037 OK.
    Coupled point location match (average 0) OK.

Mesh OK.

End

/*---------------------------------------------------------------------------*\
  =========                 |
  \\      /  F ield         | OpenFOAM: The Open Source CFD Toolbox
   \\    /   O peration     | Website:  https://openfoam.org
    \\  /    A nd           | Version:  6.0
     \\/     M anipulation  |
\*---------------------------------------------------------------------------*/
Build  : 6.0
Exec   : decomposePar
Date   : May 11 2020
Time   : 01:19:58
Host   : "c442-001.stampede2.tacc.utexas.edu"
PID    : 137969
I/O    : uncollated
Case   : /work/05113/danieler/stampede2/CFD-Final-Project/circular-cylinder-10-10
nProcs : 1
sigFpe : Enabling floating point exception trapping (FOAM_SIGFPE).
fileModificationChecking : Monitoring run-time modified files using timeStampMaster (fileModificationSkew 10)
allowSystemOperations : Allowing user-supplied system call operations

// * * * * * * * * * * * * * * * * * * * * * * * * * * * * * * * * * * * * * //
Create time



Decomposing mesh region0

Create mesh

Calculating distribution of cells
Selecting decompositionMethod hierarchical

Finished decomposition in 0 s

Calculating original mesh data

Distributing cells to processors

Distributing faces to processors

Distributing points to processors

Constructing processor meshes

Processor 0
    Number of cells = 600
    Number of faces shared with processor 1 = 62
    Number of processor patches = 1
    Number of processor faces = 62
    Number of boundary faces = 1264

Processor 1
    Number of cells = 600
    Number of faces shared with processor 0 = 62
    Number of faces shared with processor 2 = 49
    Number of processor patches = 2
    Number of processor faces = 111
    Number of boundary faces = 1281

Processor 2
    Number of cells = 600
    Number of faces shared with processor 1 = 49
    Number of faces shared with processor 3 = 40
    Number of processor patches = 2
    Number of processor faces = 89
    Number of boundary faces = 1245

Processor 3
    Number of cells = 600
    Number of faces shared with processor 2 = 40
    Number of processor patches = 1
    Number of processor faces = 40
    Number of boundary faces = 1270

Number of processor faces = 151
Max number of cells = 600 (0% above average 600)
Max number of processor patches = 2 (33.3333% above average 1.5)
Max number of faces between processors = 111 (47.0199% above average 75.5)

Time = 0
--> FOAM Warning : 
    From function bool Foam::IOobject::readHeader(Foam::Istream &)
    in file db/IOobject/IOobjectReadHeader.C at line 88
    Reading "/work/05113/danieler/stampede2/CFD-Final-Project/circular-cylinder-10-10/0/log" at line 8
    First token could not be read or is not the keyword 'FoamFile'

Check header is of the form:

/*--------------------------------*- C++ -*----------------------------------*\
  =========                 |
  \\      /  F ield         | OpenFOAM: The Open Source CFD Toolbox
   \\    /   O peration     | Website:  https://openfoam.org
    \\  /    A nd           | Version:  6.0
     \\/     M anipulation  |
\*---------------------------------------------------------------------------*/
FoamFile
{
    version     2.0;
    format      ascii;
    class       IOobject;
    location    "0";
    object      log;
}
// * * * * * * * * * * * * * * * * * * * * * * * * * * * * * * * * * * * * * //


Processor 0: field transfer
Processor 1: field transfer
Processor 2: field transfer
Processor 3: field transfer

End

TACC:  Starting up job 5678658 
TACC:  Starting parallel tasks... 
/*---------------------------------------------------------------------------*\
  =========                 |
  \\      /  F ield         | OpenFOAM: The Open Source CFD Toolbox
   \\    /   O peration     | Website:  https://openfoam.org
    \\  /    A nd           | Version:  6.0
     \\/     M anipulation  |
\*---------------------------------------------------------------------------*/
Build  : 6.0
Exec   : /home1/apps/intel18/impi18_0/OpenFOAM/OpenFOAM-6.0/platforms/linux64IccDPInt32Opt/bin/icoFoam -parallel
Date   : May 11 2020
Time   : 01:20:01
Host   : "c442-001.stampede2.tacc.utexas.edu"
PID    : 138099
I/O    : uncollated
Case   : /work/05113/danieler/stampede2/CFD-Final-Project/circular-cylinder-10-10
nProcs : 4
Slaves : 
3
(
"c442-001.stampede2.tacc.utexas.edu.138100"
"c442-001.stampede2.tacc.utexas.edu.138101"
"c442-001.stampede2.tacc.utexas.edu.138102"
)

Pstream initialized with:
    floatTransfer      : 0
    nProcsSimpleSum    : 0
    commsType          : nonBlocking
    polling iterations : 0
sigFpe : Enabling floating point exception trapping (FOAM_SIGFPE).
fileModificationChecking : Monitoring run-time modified files using timeStampMaster (fileModificationSkew 10)
allowSystemOperations : Allowing user-supplied system call operations

// * * * * * * * * * * * * * * * * * * * * * * * * * * * * * * * * * * * * * //
Create time

Create mesh for time = 0

Reading transportProperties

Reading field p

Reading field U

Reading/calculating face flux field phi


Starting time loop

Time = 0.025

Courant Number mean: 0.0846364 max: 0.746124
smoothSolver:  Solving for Ux, Initial residual = 1, Final residual = 3.92023e-06, No Iterations 10
smoothSolver:  Solving for Uy, Initial residual = 1, Final residual = 4.16798e-06, No Iterations 10
DICPCG:  Solving for p, Initial residual = 1, Final residual = 0.0450233, No Iterations 58
time step continuity errors : sum local = 2.13312e-05, global = -2.72526e-07, cumulative = -2.72526e-07
DICPCG:  Solving for p, Initial residual = 0.314373, Final residual = 8.39427e-07, No Iterations 100
time step continuity errors : sum local = 1.47906e-09, global = -6.74841e-13, cumulative = -2.72526e-07
ExecutionTime = 0.12 s  ClockTime = 1 s

Time = 0.05

Courant Number mean: 0.0887354 max: 1.98066
smoothSolver:  Solving for Ux, Initial residual = 0.2628, Final residual = 4.52788e-06, No Iterations 8
smoothSolver:  Solving for Uy, Initial residual = 0.297964, Final residual = 6.07242e-06, No Iterations 8
DICPCG:  Solving for p, Initial residual = 0.371915, Final residual = 0.0181718, No Iterations 57
time step continuity errors : sum local = 2.92612e-05, global = 9.13666e-07, cumulative = 6.4114e-07
DICPCG:  Solving for p, Initial residual = 0.53242, Final residual = 7.83122e-07, No Iterations 101
time step continuity errors : sum local = 8.23021e-10, global = -2.08819e-12, cumulative = 6.41138e-07
ExecutionTime = 0.14 s  ClockTime = 1 s

Time = 0.075

Courant Number mean: 0.0899623 max: 2.2904
smoothSolver:  Solving for Ux, Initial residual = 0.0383501, Final residual = 3.77482e-06, No Iterations 7
smoothSolver:  Solving for Uy, Initial residual = 0.0463755, Final residual = 7.26792e-06, No Iterations 7
DICPCG:  Solving for p, Initial residual = 0.41203, Final residual = 0.018378, No Iterations 23
time step continuity errors : sum local = 8.15331e-06, global = -1.44023e-06, cumulative = -7.99092e-07
DICPCG:  Solving for p, Initial residual = 0.134038, Final residual = 7.82043e-07, No Iterations 95
time step continuity errors : sum local = 3.89928e-10, global = -1.07882e-11, cumulative = -7.99103e-07
ExecutionTime = 0.16 s  ClockTime = 1 s

Time = 0.1

Courant Number mean: 0.0908497 max: 2.45323
smoothSolver:  Solving for Ux, Initial residual = 0.0297569, Final residual = 7.58528e-06, No Iterations 6
smoothSolver:  Solving for Uy, Initial residual = 0.0353581, Final residual = 4.78162e-06, No Iterations 7
DICPCG:  Solving for p, Initial residual = 0.171225, Final residual = 0.00832701, No Iterations 23
time step continuity errors : sum local = 4.48642e-06, global = 6.62379e-07, cumulative = -1.36724e-07
DICPCG:  Solving for p, Initial residual = 0.0631506, Final residual = 7.33982e-07, No Iterations 93
time step continuity errors : sum local = 4.20193e-10, global = 2.18803e-12, cumulative = -1.36722e-07
ExecutionTime = 0.17 s  ClockTime = 1 s

Time = 0.125

Courant Number mean: 0.0916042 max: 2.54272
smoothSolver:  Solving for Ux, Initial residual = 0.0205123, Final residual = 5.64621e-06, No Iterations 6
smoothSolver:  Solving for Uy, Initial residual = 0.0262382, Final residual = 9.82615e-06, No Iterations 6
DICPCG:  Solving for p, Initial residual = 0.111834, Final residual = 0.00543465, No Iterations 16
time step continuity errors : sum local = 3.1402e-06, global = -9.62833e-09, cumulative = -1.4635e-07
DICPCG:  Solving for p, Initial residual = 0.0475105, Final residual = 7.69547e-07, No Iterations 91
time step continuity errors : sum local = 4.66449e-10, global = 7.92307e-12, cumulative = -1.46342e-07
ExecutionTime = 0.19 s  ClockTime = 1 s

Time = 0.15

Courant Number mean: 0.092212 max: 2.59756
smoothSolver:  Solving for Ux, Initial residual = 0.0163782, Final residual = 4.38784e-06, No Iterations 6
smoothSolver:  Solving for Uy, Initial residual = 0.0214521, Final residual = 7.43761e-06, No Iterations 6
DICPCG:  Solving for p, Initial residual = 0.0824493, Final residual = 0.00380693, No Iterations 17
time step continuity errors : sum local = 2.37563e-06, global = 4.48341e-08, cumulative = -1.01508e-07
DICPCG:  Solving for p, Initial residual = 0.0380753, Final residual = 8.86489e-07, No Iterations 90
time step continuity errors : sum local = 5.72222e-10, global = -3.02242e-12, cumulative = -1.01511e-07
ExecutionTime = 0.21 s  ClockTime = 1 s

Time = 0.175

Courant Number mean: 0.0927464 max: 2.63492
smoothSolver:  Solving for Ux, Initial residual = 0.013779, Final residual = 3.52978e-06, No Iterations 6
smoothSolver:  Solving for Uy, Initial residual = 0.0181836, Final residual = 5.79657e-06, No Iterations 6
DICPCG:  Solving for p, Initial residual = 0.0642495, Final residual = 0.00313811, No Iterations 17
time step continuity errors : sum local = 2.06594e-06, global = 2.48096e-08, cumulative = -7.67015e-08
DICPCG:  Solving for p, Initial residual = 0.0316044, Final residual = 7.77139e-07, No Iterations 91
time step continuity errors : sum local = 5.24398e-10, global = 9.91772e-13, cumulative = -7.67005e-08
ExecutionTime = 0.23 s  ClockTime = 1 s

Time = 0.2

Courant Number mean: 0.0932573 max: 2.66259
smoothSolver:  Solving for Ux, Initial residual = 0.0120349, Final residual = 8.8429e-06, No Iterations 5
smoothSolver:  Solving for Uy, Initial residual = 0.0158678, Final residual = 4.62605e-06, No Iterations 6
DICPCG:  Solving for p, Initial residual = 0.0525219, Final residual = 0.0022602, No Iterations 18
time step continuity errors : sum local = 1.55074e-06, global = 2.50949e-08, cumulative = -5.16056e-08
DICPCG:  Solving for p, Initial residual = 0.0267584, Final residual = 8.08121e-07, No Iterations 82
time step continuity errors : sum local = 5.64828e-10, global = 3.52115e-12, cumulative = -5.16021e-08
ExecutionTime = 0.25 s  ClockTime = 1 s

Time = 0.225

Courant Number mean: 0.0937485 max: 2.68433
smoothSolver:  Solving for Ux, Initial residual = 0.010766, Final residual = 7.4744e-06, No Iterations 5
smoothSolver:  Solving for Uy, Initial residual = 0.0141163, Final residual = 3.76831e-06, No Iterations 6
DICPCG:  Solving for p, Initial residual = 0.0444224, Final residual = 0.00204882, No Iterations 18
time step continuity errors : sum local = 1.45231e-06, global = 2.23293e-08, cumulative = -2.92728e-08
DICPCG:  Solving for p, Initial residual = 0.0235659, Final residual = 7.86561e-07, No Iterations 82
time step continuity errors : sum local = 5.67065e-10, global = 1.36043e-12, cumulative = -2.92714e-08
ExecutionTime = 0.26 s  ClockTime = 1 s

Time = 0.25

Courant Number mean: 0.0942031 max: 2.70213
smoothSolver:  Solving for Ux, Initial residual = 0.00979266, Final residual = 6.42325e-06, No Iterations 5
smoothSolver:  Solving for Uy, Initial residual = 0.0127544, Final residual = 9.42021e-06, No Iterations 5
DICPCG:  Solving for p, Initial residual = 0.0384062, Final residual = 0.00184807, No Iterations 18
time step continuity errors : sum local = 1.34871e-06, global = 2.10078e-08, cumulative = -8.26357e-09
DICPCG:  Solving for p, Initial residual = 0.0210528, Final residual = 9.9766e-07, No Iterations 81
time step continuity errors : sum local = 7.40317e-10, global = 1.09147e-11, cumulative = -8.25265e-09
ExecutionTime = 0.3 s  ClockTime = 1 s

Time = 0.275

Courant Number mean: 0.094634 max: 2.71734
smoothSolver:  Solving for Ux, Initial residual = 0.0090193, Final residual = 5.58978e-06, No Iterations 5
smoothSolver:  Solving for Uy, Initial residual = 0.0116612, Final residual = 7.98517e-06, No Iterations 5
DICPCG:  Solving for p, Initial residual = 0.0338918, Final residual = 0.00128245, No Iterations 19
time step continuity errors : sum local = 9.61358e-07, global = 2.6964e-08, cumulative = 1.87114e-08
DICPCG:  Solving for p, Initial residual = 0.0188064, Final residual = 7.6561e-07, No Iterations 90
time step continuity errors : sum local = 5.82181e-10, global = 2.49086e-12, cumulative = 1.87139e-08
ExecutionTime = 0.32 s  ClockTime = 1 s

Time = 0.3

Courant Number mean: 0.0950488 max: 2.73042
smoothSolver:  Solving for Ux, Initial residual = 0.00838048, Final residual = 4.912e-06, No Iterations 5
smoothSolver:  Solving for Uy, Initial residual = 0.0107548, Final residual = 6.85164e-06, No Iterations 5
DICPCG:  Solving for p, Initial residual = 0.0304483, Final residual = 0.00116784, No Iterations 19
time step continuity errors : sum local = 8.95964e-07, global = 2.64046e-08, cumulative = 4.51184e-08
DICPCG:  Solving for p, Initial residual = 0.0171569, Final residual = 7.01527e-07, No Iterations 90
time step continuity errors : sum local = 5.44978e-10, global = 2.41068e-12, cumulative = 4.51208e-08
ExecutionTime = 0.34 s  ClockTime = 1 s

Time = 0.325

Courant Number mean: 0.0954545 max: 2.74185
smoothSolver:  Solving for Ux, Initial residual = 0.00784352, Final residual = 4.35533e-06, No Iterations 5
smoothSolver:  Solving for Uy, Initial residual = 0.00999643, Final residual = 5.94476e-06, No Iterations 5
DICPCG:  Solving for p, Initial residual = 0.0277839, Final residual = 0.00109872, No Iterations 19
time step continuity errors : sum local = 8.60493e-07, global = 2.69003e-08, cumulative = 7.20212e-08
DICPCG:  Solving for p, Initial residual = 0.0157942, Final residual = 6.45299e-07, No Iterations 90
time step continuity errors : sum local = 5.11146e-10, global = 2.43878e-12, cumulative = 7.20236e-08
ExecutionTime = 0.35 s  ClockTime = 1 s

Time = 0.35

Courant Number mean: 0.0958566 max: 2.75196
smoothSolver:  Solving for Ux, Initial residual = 0.00738204, Final residual = 3.89028e-06, No Iterations 5
smoothSolver:  Solving for Uy, Initial residual = 0.00935292, Final residual = 5.20831e-06, No Iterations 5
DICPCG:  Solving for p, Initial residual = 0.0255322, Final residual = 0.00103619, No Iterations 19
time step continuity errors : sum local = 8.26604e-07, global = 2.74506e-08, cumulative = 9.94742e-08
DICPCG:  Solving for p, Initial residual = 0.0146197, Final residual = 9.42659e-07, No Iterations 89
time step continuity errors : sum local = 7.60053e-10, global = 2.43844e-12, cumulative = 9.94766e-08
ExecutionTime = 0.37 s  ClockTime = 1 s

Time = 0.375

Courant Number mean: 0.0962581 max: 2.76099
smoothSolver:  Solving for Ux, Initial residual = 0.00697822, Final residual = 3.49641e-06, No Iterations 5
smoothSolver:  Solving for Uy, Initial residual = 0.00880087, Final residual = 4.60395e-06, No Iterations 5
DICPCG:  Solving for p, Initial residual = 0.0236239, Final residual = 0.000988871, No Iterations 19
time step continuity errors : sum local = 8.02324e-07, global = 2.73813e-08, cumulative = 1.26858e-07
DICPCG:  Solving for p, Initial residual = 0.0136001, Final residual = 8.76628e-07, No Iterations 89
time step continuity errors : sum local = 7.18172e-10, global = 2.63791e-12, cumulative = 1.26861e-07
ExecutionTime = 0.4 s  ClockTime = 1 s

Time = 0.4

Courant Number mean: 0.0966472 max: 2.76913
smoothSolver:  Solving for Ux, Initial residual = 0.00662191, Final residual = 3.16255e-06, No Iterations 5
smoothSolver:  Solving for Uy, Initial residual = 0.00832568, Final residual = 4.10098e-06, No Iterations 5
DICPCG:  Solving for p, Initial residual = 0.0219698, Final residual = 0.000946623, No Iterations 19
time step continuity errors : sum local = 7.79875e-07, global = 2.79335e-08, cumulative = 1.54794e-07
DICPCG:  Solving for p, Initial residual = 0.0127029, Final residual = 8.35023e-07, No Iterations 89
time step continuity errors : sum local = 6.94025e-10, global = 2.91552e-12, cumulative = 1.54797e-07
ExecutionTime = 0.41 s  ClockTime = 1 s

Time = 0.425

Courant Number mean: 0.0970253 max: 2.77651
smoothSolver:  Solving for Ux, Initial residual = 0.00630777, Final residual = 9.57779e-06, No Iterations 4
smoothSolver:  Solving for Uy, Initial residual = 0.00791334, Final residual = 3.67872e-06, No Iterations 5
DICPCG:  Solving for p, Initial residual = 0.0204599, Final residual = 0.000895365, No Iterations 19
time step continuity errors : sum local = 7.48025e-07, global = 2.77537e-08, cumulative = 1.82551e-07
DICPCG:  Solving for p, Initial residual = 0.0118491, Final residual = 7.88531e-07, No Iterations 89
time step continuity errors : sum local = 6.64113e-10, global = 3.01521e-12, cumulative = 1.82554e-07
ExecutionTime = 0.43 s  ClockTime = 1 s

Time = 0.45

Courant Number mean: 0.0973972 max: 2.78324
smoothSolver:  Solving for Ux, Initial residual = 0.00602828, Final residual = 8.78157e-06, No Iterations 4
smoothSolver:  Solving for Uy, Initial residual = 0.00755195, Final residual = 3.32074e-06, No Iterations 5
DICPCG:  Solving for p, Initial residual = 0.0191595, Final residual = 0.000863991, No Iterations 19
time step continuity errors : sum local = 7.31132e-07, global = 2.80308e-08, cumulative = 2.10584e-07
DICPCG:  Solving for p, Initial residual = 0.0111618, Final residual = 7.54864e-07, No Iterations 89
time step continuity errors : sum local = 6.43642e-10, global = 3.18545e-12, cumulative = 2.10588e-07
ExecutionTime = 0.44 s  ClockTime = 1 s

Time = 0.475

Courant Number mean: 0.0977633 max: 2.78941
smoothSolver:  Solving for Ux, Initial residual = 0.00578149, Final residual = 8.08397e-06, No Iterations 4
smoothSolver:  Solving for Uy, Initial residual = 0.00723216, Final residual = 9.94729e-06, No Iterations 4
DICPCG:  Solving for p, Initial residual = 0.0179936, Final residual = 0.000834116, No Iterations 19
time step continuity errors : sum local = 7.14251e-07, global = 2.77957e-08, cumulative = 2.38383e-07
DICPCG:  Solving for p, Initial residual = 0.0105245, Final residual = 7.25318e-07, No Iterations 89
time step continuity errors : sum local = 6.25557e-10, global = 3.15786e-12, cumulative = 2.38386e-07
ExecutionTime = 0.46 s  ClockTime = 1 s

Time = 0.5

Courant Number mean: 0.0981257 max: 2.79511
smoothSolver:  Solving for Ux, Initial residual = 0.00555842, Final residual = 7.47949e-06, No Iterations 4
smoothSolver:  Solving for Uy, Initial residual = 0.0069477, Final residual = 9.1339e-06, No Iterations 4
DICPCG:  Solving for p, Initial residual = 0.0170036, Final residual = 0.000805327, No Iterations 19
time step continuity errors : sum local = 6.97272e-07, global = 2.80632e-08, cumulative = 2.6645e-07
DICPCG:  Solving for p, Initial residual = 0.00997032, Final residual = 7.0794e-07, No Iterations 89
time step continuity errors : sum local = 6.1703e-10, global = 3.66734e-12, cumulative = 2.66453e-07
ExecutionTime = 0.5 s  ClockTime = 1 s

Time = 0.525

Courant Number mean: 0.0984853 max: 2.8004
smoothSolver:  Solving for Ux, Initial residual = 0.0053535, Final residual = 6.94027e-06, No Iterations 4
smoothSolver:  Solving for Uy, Initial residual = 0.00669049, Final residual = 8.42887e-06, No Iterations 4
DICPCG:  Solving for p, Initial residual = 0.0161274, Final residual = 0.000782812, No Iterations 19
time step continuity errors : sum local = 6.84771e-07, global = 2.77046e-08, cumulative = 2.94158e-07
DICPCG:  Solving for p, Initial residual = 0.00946992, Final residual = 6.77979e-07, No Iterations 89
time step continuity errors : sum local = 5.96766e-10, global = 4.03674e-12, cumulative = 2.94162e-07
ExecutionTime = 0.52 s  ClockTime = 1 s

Time = 0.55

Courant Number mean: 0.0988469 max: 2.80532
smoothSolver:  Solving for Ux, Initial residual = 0.00516488, Final residual = 6.45535e-06, No Iterations 4
smoothSolver:  Solving for Uy, Initial residual = 0.00645696, Final residual = 7.8092e-06, No Iterations 4
DICPCG:  Solving for p, Initial residual = 0.0153355, Final residual = 0.000762496, No Iterations 19
time step continuity errors : sum local = 6.73411e-07, global = 2.79902e-08, cumulative = 3.22152e-07
DICPCG:  Solving for p, Initial residual = 0.00901841, Final residual = 6.53655e-07, No Iterations 89
time step continuity errors : sum local = 5.80688e-10, global = 4.30161e-12, cumulative = 3.22157e-07
ExecutionTime = 0.54 s  ClockTime = 1 s

Time = 0.575

Courant Number mean: 0.0992052 max: 2.80994
smoothSolver:  Solving for Ux, Initial residual = 0.00499208, Final residual = 6.01991e-06, No Iterations 4
smoothSolver:  Solving for Uy, Initial residual = 0.00624461, Final residual = 7.26131e-06, No Iterations 4
DICPCG:  Solving for p, Initial residual = 0.0146159, Final residual = 0.000616487, No Iterations 20
time step continuity errors : sum local = 5.49399e-07, global = 3.11984e-08, cumulative = 3.53355e-07
DICPCG:  Solving for p, Initial residual = 0.00853586, Final residual = 9.92758e-07, No Iterations 88
time step continuity errors : sum local = 8.89753e-10, global = 2.61206e-12, cumulative = 3.53358e-07
ExecutionTime = 0.56 s  ClockTime = 1 s

Time = 0.6

Courant Number mean: 0.0995585 max: 2.81427
smoothSolver:  Solving for Ux, Initial residual = 0.00483215, Final residual = 5.62584e-06, No Iterations 4
smoothSolver:  Solving for Uy, Initial residual = 0.00605238, Final residual = 6.77376e-06, No Iterations 4
DICPCG:  Solving for p, Initial residual = 0.0139457, Final residual = 0.000591186, No Iterations 20
time step continuity errors : sum local = 5.31435e-07, global = 2.98933e-08, cumulative = 3.83251e-07
DICPCG:  Solving for p, Initial residual = 0.00814356, Final residual = 9.41598e-07, No Iterations 88
time step continuity errors : sum local = 8.50991e-10, global = 3.01406e-12, cumulative = 3.83254e-07
ExecutionTime = 0.58 s  ClockTime = 1 s

Time = 0.625

Courant Number mean: 0.0999081 max: 2.81836
smoothSolver:  Solving for Ux, Initial residual = 0.00468843, Final residual = 5.26637e-06, No Iterations 4
smoothSolver:  Solving for Uy, Initial residual = 0.00587915, Final residual = 6.33947e-06, No Iterations 4
DICPCG:  Solving for p, Initial residual = 0.0133535, Final residual = 0.000572441, No Iterations 20
time step continuity errors : sum local = 5.18791e-07, global = 3.00008e-08, cumulative = 4.13255e-07
DICPCG:  Solving for p, Initial residual = 0.00778804, Final residual = 9.18509e-07, No Iterations 88
time step continuity errors : sum local = 8.36679e-10, global = 2.99473e-12, cumulative = 4.13258e-07
ExecutionTime = 0.59 s  ClockTime = 1 s

Time = 0.65

Courant Number mean: 0.100253 max: 2.82223
smoothSolver:  Solving for Ux, Initial residual = 0.00455861, Final residual = 4.93906e-06, No Iterations 4
smoothSolver:  Solving for Uy, Initial residual = 0.00572217, Final residual = 5.95014e-06, No Iterations 4
DICPCG:  Solving for p, Initial residual = 0.0128147, Final residual = 0.000556637, No Iterations 20
time step continuity errors : sum local = 5.08372e-07, global = 2.97798e-08, cumulative = 4.43037e-07
DICPCG:  Solving for p, Initial residual = 0.00746497, Final residual = 8.98769e-07, No Iterations 88
time step continuity errors : sum local = 8.24829e-10, global = 3.10076e-12, cumulative = 4.43041e-07
ExecutionTime = 0.6 s  ClockTime = 1 s

Time = 0.675

Courant Number mean: 0.100596 max: 2.82591
smoothSolver:  Solving for Ux, Initial residual = 0.00443753, Final residual = 4.64136e-06, No Iterations 4
smoothSolver:  Solving for Uy, Initial residual = 0.00557982, Final residual = 5.59955e-06, No Iterations 4
DICPCG:  Solving for p, Initial residual = 0.0123158, Final residual = 0.000544085, No Iterations 20
time step continuity errors : sum local = 5.00581e-07, global = 2.95612e-08, cumulative = 4.72602e-07
DICPCG:  Solving for p, Initial residual = 0.0071669, Final residual = 8.77607e-07, No Iterations 88
time step continuity errors : sum local = 8.11187e-10, global = 3.27962e-12, cumulative = 4.72605e-07
ExecutionTime = 0.62 s  ClockTime = 1 s

Time = 0.7

Courant Number mean: 0.100937 max: 2.82942
smoothSolver:  Solving for Ux, Initial residual = 0.00432369, Final residual = 4.36887e-06, No Iterations 4
smoothSolver:  Solving for Uy, Initial residual = 0.00545064, Final residual = 5.28224e-06, No Iterations 4
DICPCG:  Solving for p, Initial residual = 0.0118438, Final residual = 0.000532887, No Iterations 20
time step continuity errors : sum local = 4.9376e-07, global = 2.93158e-08, cumulative = 5.01921e-07
DICPCG:  Solving for p, Initial residual = 0.00688998, Final residual = 8.57224e-07, No Iterations 88
time step continuity errors : sum local = 7.97867e-10, global = 3.46993e-12, cumulative = 5.01924e-07
ExecutionTime = 0.64 s  ClockTime = 1 s

Time = 0.725

Courant Number mean: 0.101276 max: 2.83278
smoothSolver:  Solving for Ux, Initial residual = 0.00421727, Final residual = 4.11884e-06, No Iterations 4
smoothSolver:  Solving for Uy, Initial residual = 0.00533206, Final residual = 4.99442e-06, No Iterations 4
DICPCG:  Solving for p, Initial residual = 0.011398, Final residual = 0.000522099, No Iterations 20
time step continuity errors : sum local = 4.87086e-07, global = 2.90617e-08, cumulative = 5.30986e-07
DICPCG:  Solving for p, Initial residual = 0.00663386, Final residual = 8.39391e-07, No Iterations 88
time step continuity errors : sum local = 7.86563e-10, global = 3.73975e-12, cumulative = 5.3099e-07
ExecutionTime = 0.66 s  ClockTime = 1 s

Time = 0.75

Courant Number mean: 0.101613 max: 2.836
smoothSolver:  Solving for Ux, Initial residual = 0.00411716, Final residual = 3.88919e-06, No Iterations 4
smoothSolver:  Solving for Uy, Initial residual = 0.00522247, Final residual = 4.73277e-06, No Iterations 4
DICPCG:  Solving for p, Initial residual = 0.0109752, Final residual = 0.000511873, No Iterations 20
time step continuity errors : sum local = 4.80761e-07, global = 2.88013e-08, cumulative = 5.59791e-07
DICPCG:  Solving for p, Initial residual = 0.00639198, Final residual = 8.18796e-07, No Iterations 88
time step continuity errors : sum local = 7.72353e-10, global = 3.95115e-12, cumulative = 5.59795e-07
ExecutionTime = 0.7 s  ClockTime = 1 s

Time = 0.775

Courant Number mean: 0.101952 max: 2.83909
smoothSolver:  Solving for Ux, Initial residual = 0.00402266, Final residual = 3.67733e-06, No Iterations 4
smoothSolver:  Solving for Uy, Initial residual = 0.00512033, Final residual = 4.49396e-06, No Iterations 4
DICPCG:  Solving for p, Initial residual = 0.0105741, Final residual = 0.000502114, No Iterations 20
time step continuity errors : sum local = 4.74691e-07, global = 2.8538e-08, cumulative = 5.88333e-07
DICPCG:  Solving for p, Initial residual = 0.00616417, Final residual = 8.01776e-07, No Iterations 88
time step continuity errors : sum local = 7.61183e-10, global = 4.22696e-12, cumulative = 5.88337e-07
ExecutionTime = 0.72 s  ClockTime = 1 s

Time = 0.8

Courant Number mean: 0.10229 max: 2.84208
smoothSolver:  Solving for Ux, Initial residual = 0.00393549, Final residual = 3.48127e-06, No Iterations 4
smoothSolver:  Solving for Uy, Initial residual = 0.00502447, Final residual = 4.27451e-06, No Iterations 4
DICPCG:  Solving for p, Initial residual = 0.0101969, Final residual = 0.000492538, No Iterations 20
time step continuity errors : sum local = 4.68619e-07, global = 2.82735e-08, cumulative = 6.16611e-07
DICPCG:  Solving for p, Initial residual = 0.00595026, Final residual = 7.82288e-07, No Iterations 88
time step continuity errors : sum local = 7.47339e-10, global = 4.42408e-12, cumulative = 6.16615e-07
ExecutionTime = 0.73 s  ClockTime = 1 s

Time = 0.825

Courant Number mean: 0.102625 max: 2.84496
smoothSolver:  Solving for Ux, Initial residual = 0.00385642, Final residual = 3.29958e-06, No Iterations 4
smoothSolver:  Solving for Uy, Initial residual = 0.00493478, Final residual = 4.07243e-06, No Iterations 4
DICPCG:  Solving for p, Initial residual = 0.00983837, Final residual = 0.000483169, No Iterations 20
time step continuity errors : sum local = 4.62566e-07, global = 2.80099e-08, cumulative = 6.44625e-07
DICPCG:  Solving for p, Initial residual = 0.00574959, Final residual = 7.65184e-07, No Iterations 88
time step continuity errors : sum local = 7.35486e-10, global = 4.66409e-12, cumulative = 6.4463e-07
ExecutionTime = 0.75 s  ClockTime = 1 s

Time = 0.85

Courant Number mean: 0.102956 max: 2.84784
smoothSolver:  Solving for Ux, Initial residual = 0.00378336, Final residual = 3.13114e-06, No Iterations 4
smoothSolver:  Solving for Uy, Initial residual = 0.00485242, Final residual = 3.88568e-06, No Iterations 4
DICPCG:  Solving for p, Initial residual = 0.00949589, Final residual = 0.000474105, No Iterations 20
time step continuity errors : sum local = 4.56636e-07, global = 2.7748e-08, cumulative = 6.72378e-07
DICPCG:  Solving for p, Initial residual = 0.00556071, Final residual = 7.46146e-07, No Iterations 88
time step continuity errors : sum local = 7.21435e-10, global = 4.81642e-12, cumulative = 6.72383e-07
ExecutionTime = 0.76 s  ClockTime = 1 s

Time = 0.875

Courant Number mean: 0.103286 max: 2.85063
smoothSolver:  Solving for Ux, Initial residual = 0.00371515, Final residual = 2.97452e-06, No Iterations 4
smoothSolver:  Solving for Uy, Initial residual = 0.00477513, Final residual = 3.7131e-06, No Iterations 4
DICPCG:  Solving for p, Initial residual = 0.00917719, Final residual = 0.000414382, No Iterations 21
time step continuity errors : sum local = 4.01453e-07, global = 3.0199e-08, cumulative = 7.02582e-07
DICPCG:  Solving for p, Initial residual = 0.00537311, Final residual = 7.28882e-07, No Iterations 88
time step continuity errors : sum local = 7.08816e-10, global = 5.06291e-12, cumulative = 7.02587e-07
ExecutionTime = 0.78 s  ClockTime = 1 s

Time = 0.9

Courant Number mean: 0.103613 max: 2.85335
smoothSolver:  Solving for Ux, Initial residual = 0.00365097, Final residual = 2.82941e-06, No Iterations 4
smoothSolver:  Solving for Uy, Initial residual = 0.00470206, Final residual = 3.55307e-06, No Iterations 4
DICPCG:  Solving for p, Initial residual = 0.0088731, Final residual = 0.000412168, No Iterations 21
time step continuity errors : sum local = 4.01604e-07, global = 2.98333e-08, cumulative = 7.3242e-07
DICPCG:  Solving for p, Initial residual = 0.00520167, Final residual = 9.85057e-07, No Iterations 87
time step continuity errors : sum local = 9.63421e-10, global = -1.31812e-12, cumulative = 7.32419e-07
ExecutionTime = 0.81 s  ClockTime = 1 s

Time = 0.925

Courant Number mean: 0.103939 max: 2.856
smoothSolver:  Solving for Ux, Initial residual = 0.00358989, Final residual = 2.69361e-06, No Iterations 4
smoothSolver:  Solving for Uy, Initial residual = 0.00463429, Final residual = 3.40433e-06, No Iterations 4
DICPCG:  Solving for p, Initial residual = 0.00860023, Final residual = 0.000403487, No Iterations 21
time step continuity errors : sum local = 3.95362e-07, global = 2.96924e-08, cumulative = 7.62111e-07
DICPCG:  Solving for p, Initial residual = 0.00503941, Final residual = 9.66177e-07, No Iterations 87
time step continuity errors : sum local = 9.50152e-10, global = -7.73121e-13, cumulative = 7.6211e-07
ExecutionTime = 0.82 s  ClockTime = 1 s

Time = 0.95

Courant Number mean: 0.104265 max: 2.85859
smoothSolver:  Solving for Ux, Initial residual = 0.00353186, Final residual = 9.98539e-06, No Iterations 3
smoothSolver:  Solving for Uy, Initial residual = 0.00457205, Final residual = 3.26583e-06, No Iterations 4
DICPCG:  Solving for p, Initial residual = 0.00828738, Final residual = 0.000395127, No Iterations 21
time step continuity errors : sum local = 3.89249e-07, global = 2.97436e-08, cumulative = 7.91854e-07
DICPCG:  Solving for p, Initial residual = 0.0048431, Final residual = 9.01383e-07, No Iterations 87
time step continuity errors : sum local = 8.91071e-10, global = -1.24519e-12, cumulative = 7.91853e-07
ExecutionTime = 0.84 s  ClockTime = 1 s

Time = 0.975

Courant Number mean: 0.104587 max: 2.8611
smoothSolver:  Solving for Ux, Initial residual = 0.00347614, Final residual = 9.55102e-06, No Iterations 3
smoothSolver:  Solving for Uy, Initial residual = 0.00451361, Final residual = 3.13502e-06, No Iterations 4
DICPCG:  Solving for p, Initial residual = 0.00804571, Final residual = 0.000391005, No Iterations 21
time step continuity errors : sum local = 3.87208e-07, global = 2.92152e-08, cumulative = 8.21068e-07
DICPCG:  Solving for p, Initial residual = 0.00469878, Final residual = 8.96364e-07, No Iterations 87
time step continuity errors : sum local = 8.9066e-10, global = -3.1685e-13, cumulative = 8.21067e-07
ExecutionTime = 0.85 s  ClockTime = 1 s

Time = 1

Courant Number mean: 0.104907 max: 2.86357
smoothSolver:  Solving for Ux, Initial residual = 0.00342394, Final residual = 9.13903e-06, No Iterations 3
smoothSolver:  Solving for Uy, Initial residual = 0.00446047, Final residual = 3.01309e-06, No Iterations 4
DICPCG:  Solving for p, Initial residual = 0.00781358, Final residual = 0.000381425, No Iterations 22
time step continuity errors : sum local = 3.79611e-07, global = 3.29695e-08, cumulative = 8.54037e-07
DICPCG:  Solving for p, Initial residual = 0.0045545, Final residual = 9.94689e-07, No Iterations 85
time step continuity errors : sum local = 9.93204e-10, global = -3.32004e-11, cumulative = 8.54004e-07
ExecutionTime = 0.89 s  ClockTime = 1 s

Time = 1.025

Courant Number mean: 0.105225 max: 2.86598
smoothSolver:  Solving for Ux, Initial residual = 0.00337434, Final residual = 8.75365e-06, No Iterations 3
smoothSolver:  Solving for Uy, Initial residual = 0.00440908, Final residual = 2.8982e-06, No Iterations 4
DICPCG:  Solving for p, Initial residual = 0.00759915, Final residual = 0.000365223, No Iterations 23
time step continuity errors : sum local = 3.65249e-07, global = 3.71773e-08, cumulative = 8.91181e-07
DICPCG:  Solving for p, Initial residual = 0.00441444, Final residual = 9.43526e-07, No Iterations 85
time step continuity errors : sum local = 9.46593e-10, global = -3.30011e-11, cumulative = 8.91148e-07
ExecutionTime = 0.91 s  ClockTime = 1 s

Time = 1.05

Courant Number mean: 0.10554 max: 2.86834
smoothSolver:  Solving for Ux, Initial residual = 0.00332828, Final residual = 8.38971e-06, No Iterations 3
smoothSolver:  Solving for Uy, Initial residual = 0.0043602, Final residual = 2.78996e-06, No Iterations 4
DICPCG:  Solving for p, Initial residual = 0.00740049, Final residual = 0.00035584, No Iterations 23
time step continuity errors : sum local = 3.57539e-07, global = 3.7754e-08, cumulative = 9.28902e-07
DICPCG:  Solving for p, Initial residual = 0.00429007, Final residual = 8.9548e-07, No Iterations 85
time step continuity errors : sum local = 9.02557e-10, global = -3.14106e-11, cumulative = 9.28871e-07
ExecutionTime = 0.93 s  ClockTime = 1 s

Time = 1.075

Courant Number mean: 0.105851 max: 2.87067
smoothSolver:  Solving for Ux, Initial residual = 0.00328417, Final residual = 8.04807e-06, No Iterations 3
smoothSolver:  Solving for Uy, Initial residual = 0.00431395, Final residual = 2.68846e-06, No Iterations 4
DICPCG:  Solving for p, Initial residual = 0.0072093, Final residual = 0.000356396, No Iterations 23
time step continuity errors : sum local = 3.59755e-07, global = 3.73975e-08, cumulative = 9.66268e-07
DICPCG:  Solving for p, Initial residual = 0.00417673, Final residual = 8.79385e-07, No Iterations 85
time step continuity errors : sum local = 8.90381e-10, global = -3.0594e-11, cumulative = 9.66238e-07
ExecutionTime = 0.94 s  ClockTime = 2 s

Time = 1.1

Courant Number mean: 0.106158 max: 2.87294
smoothSolver:  Solving for Ux, Initial residual = 0.00324318, Final residual = 7.72597e-06, No Iterations 3
smoothSolver:  Solving for Uy, Initial residual = 0.00427038, Final residual = 2.59263e-06, No Iterations 4
DICPCG:  Solving for p, Initial residual = 0.00702616, Final residual = 0.000346222, No Iterations 23
time step continuity errors : sum local = 3.51063e-07, global = 3.72787e-08, cumulative = 1.00352e-06
DICPCG:  Solving for p, Initial residual = 0.00406295, Final residual = 8.65792e-07, No Iterations 85
time step continuity errors : sum local = 8.80518e-10, global = -2.95604e-11, cumulative = 1.00349e-06
ExecutionTime = 0.97 s  ClockTime = 2 s

Time = 1.125

Courant Number mean: 0.106462 max: 2.87518
smoothSolver:  Solving for Ux, Initial residual = 0.00320494, Final residual = 7.42189e-06, No Iterations 3
smoothSolver:  Solving for Uy, Initial residual = 0.00422905, Final residual = 9.73777e-06, No Iterations 3
DICPCG:  Solving for p, Initial residual = 0.00680811, Final residual = 0.000298067, No Iterations 24
time step continuity errors : sum local = 3.03568e-07, global = 3.92638e-08, cumulative = 1.04275e-06
DICPCG:  Solving for p, Initial residual = 0.00390097, Final residual = 9.74755e-07, No Iterations 84
time step continuity errors : sum local = 9.95639e-10, global = -4.26907e-11, cumulative = 1.04271e-06
ExecutionTime = 0.98 s  ClockTime = 2 s

Time = 1.15

Courant Number mean: 0.106766 max: 2.87739
smoothSolver:  Solving for Ux, Initial residual = 0.00316865, Final residual = 7.13278e-06, No Iterations 3
smoothSolver:  Solving for Uy, Initial residual = 0.00419158, Final residual = 9.42789e-06, No Iterations 3
DICPCG:  Solving for p, Initial residual = 0.00664541, Final residual = 0.000293742, No Iterations 24
time step continuity errors : sum local = 3.00449e-07, global = 3.90879e-08, cumulative = 1.0818e-06
DICPCG:  Solving for p, Initial residual = 0.00380468, Final residual = 9.32618e-07, No Iterations 84
time step continuity errors : sum local = 9.56637e-10, global = -4.15853e-11, cumulative = 1.08175e-06
ExecutionTime = 0.99 s  ClockTime = 2 s

Time = 1.175

Courant Number mean: 0.107065 max: 2.87956
smoothSolver:  Solving for Ux, Initial residual = 0.00313449, Final residual = 6.86101e-06, No Iterations 3
smoothSolver:  Solving for Uy, Initial residual = 0.00415501, Final residual = 9.12709e-06, No Iterations 3
DICPCG:  Solving for p, Initial residual = 0.00648658, Final residual = 0.000293593, No Iterations 24
time step continuity errors : sum local = 3.01566e-07, global = 3.88655e-08, cumulative = 1.12062e-06
DICPCG:  Solving for p, Initial residual = 0.00371103, Final residual = 9.19174e-07, No Iterations 84
time step continuity errors : sum local = 9.4678e-10, global = -4.0695e-11, cumulative = 1.12058e-06
ExecutionTime = 1.01 s  ClockTime = 2 s

Time = 1.2

Courant Number mean: 0.107363 max: 2.88169
smoothSolver:  Solving for Ux, Initial residual = 0.00310161, Final residual = 6.60384e-06, No Iterations 3
smoothSolver:  Solving for Uy, Initial residual = 0.00412009, Final residual = 8.83924e-06, No Iterations 3
DICPCG:  Solving for p, Initial residual = 0.0063347, Final residual = 0.000293224, No Iterations 24
time step continuity errors : sum local = 3.0243e-07, global = 3.86913e-08, cumulative = 1.15927e-06
DICPCG:  Solving for p, Initial residual = 0.00362112, Final residual = 8.95851e-07, No Iterations 84
time step continuity errors : sum local = 9.26488e-10, global = -3.95882e-11, cumulative = 1.15923e-06
ExecutionTime = 1.03 s  ClockTime = 2 s

Time = 1.225

Courant Number mean: 0.107657 max: 2.88379
smoothSolver:  Solving for Ux, Initial residual = 0.00306953, Final residual = 6.36056e-06, No Iterations 3
smoothSolver:  Solving for Uy, Initial residual = 0.00408628, Final residual = 8.56392e-06, No Iterations 3
DICPCG:  Solving for p, Initial residual = 0.00618938, Final residual = 0.000293301, No Iterations 24
time step continuity errors : sum local = 3.03724e-07, global = 3.85335e-08, cumulative = 1.19776e-06
DICPCG:  Solving for p, Initial residual = 0.00353514, Final residual = 8.78621e-07, No Iterations 84
time step continuity errors : sum local = 9.12268e-10, global = -3.85976e-11, cumulative = 1.19773e-06
ExecutionTime = 1.04 s  ClockTime = 2 s

Time = 1.25

Courant Number mean: 0.107949 max: 2.88586
smoothSolver:  Solving for Ux, Initial residual = 0.00303927, Final residual = 6.12959e-06, No Iterations 3
smoothSolver:  Solving for Uy, Initial residual = 0.00405384, Final residual = 8.30095e-06, No Iterations 3
DICPCG:  Solving for p, Initial residual = 0.00604902, Final residual = 0.000293579, No Iterations 24
time step continuity errors : sum local = 3.05207e-07, global = 3.83905e-08, cumulative = 1.23612e-06
DICPCG:  Solving for p, Initial residual = 0.00345344, Final residual = 8.53386e-07, No Iterations 84
time step continuity errors : sum local = 8.89502e-10, global = -3.75526e-11, cumulative = 1.23608e-06
ExecutionTime = 1.09 s  ClockTime = 2 s

Time = 1.275

Courant Number mean: 0.108239 max: 2.88789
smoothSolver:  Solving for Ux, Initial residual = 0.00301053, Final residual = 5.91003e-06, No Iterations 3
smoothSolver:  Solving for Uy, Initial residual = 0.00402375, Final residual = 8.04977e-06, No Iterations 3
DICPCG:  Solving for p, Initial residual = 0.00591444, Final residual = 0.000294039, No Iterations 24
time step continuity errors : sum local = 3.0687e-07, global = 3.82569e-08, cumulative = 1.27434e-06
DICPCG:  Solving for p, Initial residual = 0.00337434, Final residual = 8.35097e-07, No Iterations 84
time step continuity errors : sum local = 8.73777e-10, global = -3.66336e-11, cumulative = 1.2743e-06
ExecutionTime = 1.11 s  ClockTime = 2 s

Time = 1.3

Courant Number mean: 0.108534 max: 2.88991
smoothSolver:  Solving for Ux, Initial residual = 0.0029829, Final residual = 5.70128e-06, No Iterations 3
smoothSolver:  Solving for Uy, Initial residual = 0.0039966, Final residual = 7.80902e-06, No Iterations 3
DICPCG:  Solving for p, Initial residual = 0.00578396, Final residual = 0.000282439, No Iterations 25
time step continuity errors : sum local = 2.95886e-07, global = 3.90965e-08, cumulative = 1.3134e-06
DICPCG:  Solving for p, Initial residual = 0.00328801, Final residual = 7.83662e-07, No Iterations 84
time step continuity errors : sum local = 8.23046e-10, global = -3.45089e-11, cumulative = 1.31336e-06
ExecutionTime = 1.13 s  ClockTime = 2 s

Time = 1.325

Courant Number mean: 0.10883 max: 2.89196
smoothSolver:  Solving for Ux, Initial residual = 0.00295622, Final residual = 5.50309e-06, No Iterations 3
smoothSolver:  Solving for Uy, Initial residual = 0.00397052, Final residual = 7.57715e-06, No Iterations 3
DICPCG:  Solving for p, Initial residual = 0.00565414, Final residual = 0.000280318, No Iterations 25
time step continuity errors : sum local = 2.94761e-07, global = 3.89066e-08, cumulative = 1.35227e-06
DICPCG:  Solving for p, Initial residual = 0.00321147, Final residual = 7.75964e-07, No Iterations 84
time step continuity errors : sum local = 8.17955e-10, global = -3.42492e-11, cumulative = 1.35223e-06
ExecutionTime = 1.14 s  ClockTime = 2 s

Time = 1.35

Courant Number mean: 0.109122 max: 2.89399
smoothSolver:  Solving for Ux, Initial residual = 0.00293181, Final residual = 5.31491e-06, No Iterations 3
smoothSolver:  Solving for Uy, Initial residual = 0.00394501, Final residual = 7.35456e-06, No Iterations 3
DICPCG:  Solving for p, Initial residual = 0.00553171, Final residual = 0.000269864, No Iterations 28
time step continuity errors : sum local = 2.84796e-07, global = 3.57787e-08, cumulative = 1.38801e-06
DICPCG:  Solving for p, Initial residual = 0.00311793, Final residual = 7.88166e-07, No Iterations 84
time step continuity errors : sum local = 8.33794e-10, global = -3.38668e-11, cumulative = 1.38798e-06
ExecutionTime = 1.15 s  ClockTime = 2 s

Time = 1.375

Courant Number mean: 0.109411 max: 2.896
smoothSolver:  Solving for Ux, Initial residual = 0.00290802, Final residual = 5.13677e-06, No Iterations 3
smoothSolver:  Solving for Uy, Initial residual = 0.00391859, Final residual = 7.14e-06, No Iterations 3
DICPCG:  Solving for p, Initial residual = 0.00541199, Final residual = 0.000268379, No Iterations 28
time step continuity errors : sum local = 2.84235e-07, global = 3.49835e-08, cumulative = 1.42296e-06
DICPCG:  Solving for p, Initial residual = 0.00305087, Final residual = 7.96264e-07, No Iterations 84
time step continuity errors : sum local = 8.45316e-10, global = -3.39272e-11, cumulative = 1.42293e-06
ExecutionTime = 1.17 s  ClockTime = 2 s

Time = 1.4

Courant Number mean: 0.109698 max: 2.89798
smoothSolver:  Solving for Ux, Initial residual = 0.0028855, Final residual = 4.96578e-06, No Iterations 3
smoothSolver:  Solving for Uy, Initial residual = 0.00389401, Final residual = 6.93283e-06, No Iterations 3
DICPCG:  Solving for p, Initial residual = 0.00529663, Final residual = 0.00022395, No Iterations 29
time step continuity errors : sum local = 2.38004e-07, global = 3.26348e-08, cumulative = 1.45556e-06
DICPCG:  Solving for p, Initial residual = 0.00297866, Final residual = 9.96881e-07, No Iterations 83
time step continuity errors : sum local = 1.06191e-09, global = -4.36787e-11, cumulative = 1.45552e-06
ExecutionTime = 1.19 s  ClockTime = 2 s

Time = 1.425

Courant Number mean: 0.109982 max: 2.89994
smoothSolver:  Solving for Ux, Initial residual = 0.00286359, Final residual = 4.80128e-06, No Iterations 3
smoothSolver:  Solving for Uy, Initial residual = 0.0038693, Final residual = 6.73228e-06, No Iterations 3
DICPCG:  Solving for p, Initial residual = 0.00518028, Final residual = 0.000224178, No Iterations 29
time step continuity errors : sum local = 2.39054e-07, global = 3.26018e-08, cumulative = 1.48812e-06
DICPCG:  Solving for p, Initial residual = 0.00291842, Final residual = 9.94047e-07, No Iterations 83
time step continuity errors : sum local = 1.06243e-09, global = -4.39456e-11, cumulative = 1.48808e-06
ExecutionTime = 1.2 s  ClockTime = 2 s

Time = 1.45

Courant Number mean: 0.110266 max: 2.90187
smoothSolver:  Solving for Ux, Initial residual = 0.00284298, Final residual = 4.64529e-06, No Iterations 3
smoothSolver:  Solving for Uy, Initial residual = 0.00384746, Final residual = 6.53918e-06, No Iterations 3
DICPCG:  Solving for p, Initial residual = 0.00507103, Final residual = 0.00022379, No Iterations 29
time step continuity errors : sum local = 2.39432e-07, global = 3.24503e-08, cumulative = 1.52053e-06
DICPCG:  Solving for p, Initial residual = 0.00285697, Final residual = 9.78272e-07, No Iterations 83
time step continuity errors : sum local = 1.04898e-09, global = -4.32025e-11, cumulative = 1.52048e-06
ExecutionTime = 1.23 s  ClockTime = 2 s

Time = 1.475

Courant Number mean: 0.110546 max: 2.90379
smoothSolver:  Solving for Ux, Initial residual = 0.00282434, Final residual = 4.49635e-06, No Iterations 3
smoothSolver:  Solving for Uy, Initial residual = 0.00382632, Final residual = 6.35279e-06, No Iterations 3
DICPCG:  Solving for p, Initial residual = 0.00497046, Final residual = 0.00021638, No Iterations 29
time step continuity errors : sum local = 2.32249e-07, global = 3.21657e-08, cumulative = 1.55265e-06
DICPCG:  Solving for p, Initial residual = 0.00279364, Final residual = 9.5074e-07, No Iterations 83
time step continuity errors : sum local = 1.02269e-09, global = -4.27383e-11, cumulative = 1.55261e-06
ExecutionTime = 1.24 s  ClockTime = 2 s

Time = 1.5

Courant Number mean: 0.110824 max: 2.90568
smoothSolver:  Solving for Ux, Initial residual = 0.00280631, Final residual = 4.35376e-06, No Iterations 3
smoothSolver:  Solving for Uy, Initial residual = 0.00380548, Final residual = 6.1725e-06, No Iterations 3
DICPCG:  Solving for p, Initial residual = 0.00487283, Final residual = 0.000218165, No Iterations 29
time step continuity errors : sum local = 2.34898e-07, global = 3.21166e-08, cumulative = 1.58472e-06
DICPCG:  Solving for p, Initial residual = 0.00273817, Final residual = 9.4071e-07, No Iterations 83
time step continuity errors : sum local = 1.01502e-09, global = -4.14301e-11, cumulative = 1.58468e-06
ExecutionTime = 1.28 s  ClockTime = 2 s

Time = 1.525

Courant Number mean: 0.111103 max: 2.90755
smoothSolver:  Solving for Ux, Initial residual = 0.00278919, Final residual = 4.21818e-06, No Iterations 3
smoothSolver:  Solving for Uy, Initial residual = 0.00378496, Final residual = 6.00045e-06, No Iterations 3
DICPCG:  Solving for p, Initial residual = 0.0047809, Final residual = 0.000212814, No Iterations 29
time step continuity errors : sum local = 2.29847e-07, global = 3.18852e-08, cumulative = 1.61657e-06
DICPCG:  Solving for p, Initial residual = 0.00268114, Final residual = 9.13831e-07, No Iterations 83
time step continuity errors : sum local = 9.89056e-10, global = -4.1591e-11, cumulative = 1.61653e-06
ExecutionTime = 1.3 s  ClockTime = 2 s

Time = 1.55

Courant Number mean: 0.111381 max: 2.9094
smoothSolver:  Solving for Ux, Initial residual = 0.0027728, Final residual = 4.08808e-06, No Iterations 3
smoothSolver:  Solving for Uy, Initial residual = 0.00376493, Final residual = 5.8346e-06, No Iterations 3
DICPCG:  Solving for p, Initial residual = 0.00468961, Final residual = 0.000212932, No Iterations 29
time step continuity errors : sum local = 2.30687e-07, global = 3.18013e-08, cumulative = 1.64833e-06
DICPCG:  Solving for p, Initial residual = 0.00262766, Final residual = 9.01511e-07, No Iterations 83
time step continuity errors : sum local = 9.7874e-10, global = -4.09304e-11, cumulative = 1.64829e-06
ExecutionTime = 1.31 s  ClockTime = 2 s

Time = 1.575

Courant Number mean: 0.111656 max: 2.91124
smoothSolver:  Solving for Ux, Initial residual = 0.00275774, Final residual = 3.96356e-06, No Iterations 3
smoothSolver:  Solving for Uy, Initial residual = 0.00374623, Final residual = 5.67415e-06, No Iterations 3
DICPCG:  Solving for p, Initial residual = 0.00460512, Final residual = 0.00020899, No Iterations 29
time step continuity errors : sum local = 2.27115e-07, global = 3.16044e-08, cumulative = 1.67989e-06
DICPCG:  Solving for p, Initial residual = 0.00257498, Final residual = 8.88114e-07, No Iterations 83
time step continuity errors : sum local = 9.67128e-10, global = -3.98061e-11, cumulative = 1.67985e-06
ExecutionTime = 1.34 s  ClockTime = 2 s

Time = 1.6

Courant Number mean: 0.11193 max: 2.91305
smoothSolver:  Solving for Ux, Initial residual = 0.0027429, Final residual = 3.84413e-06, No Iterations 3
smoothSolver:  Solving for Uy, Initial residual = 0.00372905, Final residual = 5.51886e-06, No Iterations 3
DICPCG:  Solving for p, Initial residual = 0.00452403, Final residual = 0.000207372, No Iterations 29
time step continuity errors : sum local = 2.26044e-07, global = 3.14821e-08, cumulative = 1.71133e-06
DICPCG:  Solving for p, Initial residual = 0.00252347, Final residual = 8.68911e-07, No Iterations 83
time step continuity errors : sum local = 9.49095e-10, global = -3.98802e-11, cumulative = 1.71129e-06
ExecutionTime = 1.35 s  ClockTime = 2 s

Time = 1.625

Courant Number mean: 0.112202 max: 2.91485
smoothSolver:  Solving for Ux, Initial residual = 0.00272849, Final residual = 3.72987e-06, No Iterations 3
smoothSolver:  Solving for Uy, Initial residual = 0.00371362, Final residual = 5.36875e-06, No Iterations 3
DICPCG:  Solving for p, Initial residual = 0.00444756, Final residual = 0.000204879, No Iterations 29
time step continuity errors : sum local = 2.24006e-07, global = 3.13246e-08, cumulative = 1.74262e-06
DICPCG:  Solving for p, Initial residual = 0.00247404, Final residual = 8.58375e-07, No Iterations 83
time step continuity errors : sum local = 9.40428e-10, global = -3.8972e-11, cumulative = 1.74258e-06
ExecutionTime = 1.37 s  ClockTime = 2 s

Time = 1.65

Courant Number mean: 0.112473 max: 2.91663
smoothSolver:  Solving for Ux, Initial residual = 0.00271434, Final residual = 3.62069e-06, No Iterations 3
smoothSolver:  Solving for Uy, Initial residual = 0.00369981, Final residual = 5.22422e-06, No Iterations 3
DICPCG:  Solving for p, Initial residual = 0.00437466, Final residual = 0.000201206, No Iterations 29
time step continuity errors : sum local = 2.20655e-07, global = 3.1149e-08, cumulative = 1.77373e-06
DICPCG:  Solving for p, Initial residual = 0.00242503, Final residual = 8.2934e-07, No Iterations 83
time step continuity errors : sum local = 9.11332e-10, global = -3.75062e-11, cumulative = 1.77369e-06
ExecutionTime = 1.39 s  ClockTime = 2 s

Time = 1.675

Courant Number mean: 0.112742 max: 2.91839
smoothSolver:  Solving for Ux, Initial residual = 0.00270049, Final residual = 3.51633e-06, No Iterations 3
smoothSolver:  Solving for Uy, Initial residual = 0.00368676, Final residual = 5.08479e-06, No Iterations 3
DICPCG:  Solving for p, Initial residual = 0.00430355, Final residual = 0.000200361, No Iterations 29
time step continuity errors : sum local = 2.20383e-07, global = 3.10411e-08, cumulative = 1.80473e-06
DICPCG:  Solving for p, Initial residual = 0.00237882, Final residual = 8.12669e-07, No Iterations 83
time step continuity errors : sum local = 8.95651e-10, global = -3.78608e-11, cumulative = 1.80469e-06
ExecutionTime = 1.4 s  ClockTime = 2 s

Time = 1.7

Courant Number mean: 0.113014 max: 2.92014
smoothSolver:  Solving for Ux, Initial residual = 0.00268867, Final residual = 3.41661e-06, No Iterations 3
smoothSolver:  Solving for Uy, Initial residual = 0.00367361, Final residual = 4.95037e-06, No Iterations 3
DICPCG:  Solving for p, Initial residual = 0.00423302, Final residual = 0.00019483, No Iterations 29
time step continuity errors : sum local = 2.14934e-07, global = 3.07925e-08, cumulative = 1.83549e-06
DICPCG:  Solving for p, Initial residual = 0.00233236, Final residual = 8.00053e-07, No Iterations 83
time step continuity errors : sum local = 8.84345e-10, global = -3.69894e-11, cumulative = 1.83545e-06
ExecutionTime = 1.42 s  ClockTime = 2 s

Time = 1.725

Courant Number mean: 0.113287 max: 2.92187
smoothSolver:  Solving for Ux, Initial residual = 0.0026772, Final residual = 3.32107e-06, No Iterations 3
smoothSolver:  Solving for Uy, Initial residual = 0.00366009, Final residual = 4.81975e-06, No Iterations 3
DICPCG:  Solving for p, Initial residual = 0.00416138, Final residual = 0.000195727, No Iterations 29
time step continuity errors : sum local = 2.16562e-07, global = 3.07491e-08, cumulative = 1.8662e-06
DICPCG:  Solving for p, Initial residual = 0.00229019, Final residual = 7.76968e-07, No Iterations 83
time step continuity errors : sum local = 8.6136e-10, global = -3.64049e-11, cumulative = 1.86616e-06
ExecutionTime = 1.43 s  ClockTime = 2 s

Time = 1.75

Courant Number mean: 0.113556 max: 2.92359
smoothSolver:  Solving for Ux, Initial residual = 0.00266593, Final residual = 3.22966e-06, No Iterations 3
smoothSolver:  Solving for Uy, Initial residual = 0.00364625, Final residual = 4.69409e-06, No Iterations 3
DICPCG:  Solving for p, Initial residual = 0.0040923, Final residual = 0.000188877, No Iterations 29
time step continuity errors : sum local = 2.09599e-07, global = 3.04212e-08, cumulative = 1.89658e-06
DICPCG:  Solving for p, Initial residual = 0.00224533, Final residual = 7.58782e-07, No Iterations 83
time step continuity errors : sum local = 8.43674e-10, global = -3.58451e-11, cumulative = 1.89655e-06
ExecutionTime = 1.48 s  ClockTime = 2 s

Time = 1.775

Courant Number mean: 0.113825 max: 2.92529
smoothSolver:  Solving for Ux, Initial residual = 0.00265485, Final residual = 3.14245e-06, No Iterations 3
smoothSolver:  Solving for Uy, Initial residual = 0.00363367, Final residual = 4.57362e-06, No Iterations 3
DICPCG:  Solving for p, Initial residual = 0.00402167, Final residual = 0.000190847, No Iterations 29
time step continuity errors : sum local = 2.12403e-07, global = 3.0448e-08, cumulative = 1.92699e-06
DICPCG:  Solving for p, Initial residual = 0.00220665, Final residual = 7.57055e-07, No Iterations 83
time step continuity errors : sum local = 8.44171e-10, global = -3.47414e-11, cumulative = 1.92696e-06
ExecutionTime = 1.5 s  ClockTime = 2 s

Time = 1.8

Courant Number mean: 0.11409 max: 2.92698
smoothSolver:  Solving for Ux, Initial residual = 0.00264494, Final residual = 3.05925e-06, No Iterations 3
smoothSolver:  Solving for Uy, Initial residual = 0.0036213, Final residual = 4.45844e-06, No Iterations 3
DICPCG:  Solving for p, Initial residual = 0.00395693, Final residual = 0.000184559, No Iterations 29
time step continuity errors : sum local = 2.05991e-07, global = 3.00672e-08, cumulative = 1.95703e-06
DICPCG:  Solving for p, Initial residual = 0.00216524, Final residual = 7.29617e-07, No Iterations 83
time step continuity errors : sum local = 8.15866e-10, global = -3.42337e-11, cumulative = 1.95699e-06
ExecutionTime = 1.52 s  ClockTime = 2 s

Time = 1.825

Courant Number mean: 0.114353 max: 2.92865
smoothSolver:  Solving for Ux, Initial residual = 0.00263518, Final residual = 2.98009e-06, No Iterations 3
smoothSolver:  Solving for Uy, Initial residual = 0.00360906, Final residual = 4.34705e-06, No Iterations 3
DICPCG:  Solving for p, Initial residual = 0.00389245, Final residual = 0.000186425, No Iterations 29
time step continuity errors : sum local = 2.08653e-07, global = 3.01431e-08, cumulative = 1.98714e-06
DICPCG:  Solving for p, Initial residual = 0.00212822, Final residual = 7.27513e-07, No Iterations 83
time step continuity errors : sum local = 8.15749e-10, global = -3.3028e-11, cumulative = 1.9871e-06
ExecutionTime = 1.53 s  ClockTime = 2 s

Time = 1.85

Courant Number mean: 0.114616 max: 2.93038
smoothSolver:  Solving for Ux, Initial residual = 0.00262552, Final residual = 2.90477e-06, No Iterations 3
smoothSolver:  Solving for Uy, Initial residual = 0.00359632, Final residual = 4.23887e-06, No Iterations 3
DICPCG:  Solving for p, Initial residual = 0.00383621, Final residual = 0.000181083, No Iterations 29
time step continuity errors : sum local = 2.03229e-07, global = 2.97403e-08, cumulative = 2.01684e-06
DICPCG:  Solving for p, Initial residual = 0.00208934, Final residual = 9.84793e-07, No Iterations 82
time step continuity errors : sum local = 1.10721e-09, global = -4.44931e-11, cumulative = 2.0168e-06
ExecutionTime = 1.55 s  ClockTime = 2 s

Time = 1.875

Courant Number mean: 0.114878 max: 2.93211
smoothSolver:  Solving for Ux, Initial residual = 0.00261604, Final residual = 2.83273e-06, No Iterations 3
smoothSolver:  Solving for Uy, Initial residual = 0.00358371, Final residual = 4.13388e-06, No Iterations 3
DICPCG:  Solving for p, Initial residual = 0.00378044, Final residual = 0.0001827, No Iterations 29
time step continuity errors : sum local = 2.05594e-07, global = 2.98397e-08, cumulative = 2.04664e-06
DICPCG:  Solving for p, Initial residual = 0.00205541, Final residual = 9.79681e-07, No Iterations 82
time step continuity errors : sum local = 1.10438e-09, global = -4.29788e-11, cumulative = 2.0466e-06
ExecutionTime = 1.56 s  ClockTime = 2 s

Time = 1.9

Courant Number mean: 0.115138 max: 2.93382
smoothSolver:  Solving for Ux, Initial residual = 0.00260781, Final residual = 2.76388e-06, No Iterations 3
smoothSolver:  Solving for Uy, Initial residual = 0.00357093, Final residual = 4.0319e-06, No Iterations 3
DICPCG:  Solving for p, Initial residual = 0.00373025, Final residual = 0.000177456, No Iterations 29
time step continuity errors : sum local = 2.00216e-07, global = 2.94273e-08, cumulative = 2.07602e-06
DICPCG:  Solving for p, Initial residual = 0.00201998, Final residual = 9.59986e-07, No Iterations 82
time step continuity errors : sum local = 1.08498e-09, global = -4.21101e-11, cumulative = 2.07598e-06
ExecutionTime = 1.58 s  ClockTime = 2 s

Time = 1.925

Courant Number mean: 0.115398 max: 2.93553
smoothSolver:  Solving for Ux, Initial residual = 0.00260058, Final residual = 2.69751e-06, No Iterations 3
smoothSolver:  Solving for Uy, Initial residual = 0.00355897, Final residual = 3.93268e-06, No Iterations 3
DICPCG:  Solving for p, Initial residual = 0.00367766, Final residual = 0.000179031, No Iterations 29
time step continuity errors : sum local = 2.02517e-07, global = 2.95465e-08, cumulative = 2.10553e-06
DICPCG:  Solving for p, Initial residual = 0.00198926, Final residual = 9.58789e-07, No Iterations 82
time step continuity errors : sum local = 1.08642e-09, global = -4.05257e-11, cumulative = 2.10549e-06
ExecutionTime = 1.6 s  ClockTime = 2 s

Time = 1.95

Courant Number mean: 0.115654 max: 2.93722
smoothSolver:  Solving for Ux, Initial residual = 0.00259446, Final residual = 2.63483e-06, No Iterations 3
smoothSolver:  Solving for Uy, Initial residual = 0.0035477, Final residual = 3.83777e-06, No Iterations 3
DICPCG:  Solving for p, Initial residual = 0.00362938, Final residual = 0.00017385, No Iterations 29
time step continuity errors : sum local = 1.97159e-07, global = 2.91205e-08, cumulative = 2.13461e-06
DICPCG:  Solving for p, Initial residual = 0.0019565, Final residual = 9.39475e-07, No Iterations 82
time step continuity errors : sum local = 1.06722e-09, global = -3.95131e-11, cumulative = 2.13457e-06
ExecutionTime = 1.62 s  ClockTime = 2 s

Time = 1.975

Courant Number mean: 0.115908 max: 2.9389
smoothSolver:  Solving for Ux, Initial residual = 0.00258862, Final residual = 2.57459e-06, No Iterations 3
smoothSolver:  Solving for Uy, Initial residual = 0.00353684, Final residual = 3.74607e-06, No Iterations 3
DICPCG:  Solving for p, Initial residual = 0.00357946, Final residual = 0.000175452, No Iterations 29
time step continuity errors : sum local = 1.99477e-07, global = 2.92514e-08, cumulative = 2.16382e-06
DICPCG:  Solving for p, Initial residual = 0.00192881, Final residual = 9.40213e-07, No Iterations 82
time step continuity errors : sum local = 1.07072e-09, global = -3.78646e-11, cumulative = 2.16378e-06
ExecutionTime = 1.64 s  ClockTime = 2 s

Time = 2

Courant Number mean: 0.116162 max: 2.94057
smoothSolver:  Solving for Ux, Initial residual = 0.00258315, Final residual = 2.5172e-06, No Iterations 3
smoothSolver:  Solving for Uy, Initial residual = 0.00352609, Final residual = 3.65738e-06, No Iterations 3
DICPCG:  Solving for p, Initial residual = 0.00353219, Final residual = 0.000170727, No Iterations 29
time step continuity errors : sum local = 1.94584e-07, global = 2.88272e-08, cumulative = 2.19261e-06
DICPCG:  Solving for p, Initial residual = 0.00189896, Final residual = 9.24615e-07, No Iterations 82
time step continuity errors : sum local = 1.05552e-09, global = -3.67703e-11, cumulative = 2.19257e-06
ExecutionTime = 1.68 s  ClockTime = 2 s

Time = 2.025

Courant Number mean: 0.116414 max: 2.94223
smoothSolver:  Solving for Ux, Initial residual = 0.00257764, Final residual = 2.46228e-06, No Iterations 3
smoothSolver:  Solving for Uy, Initial residual = 0.00351541, Final residual = 3.5729e-06, No Iterations 3
DICPCG:  Solving for p, Initial residual = 0.00348582, Final residual = 0.000172398, No Iterations 29
time step continuity errors : sum local = 1.96966e-07, global = 2.89656e-08, cumulative = 2.22154e-06
DICPCG:  Solving for p, Initial residual = 0.00187365, Final residual = 9.19893e-07, No Iterations 82
time step continuity errors : sum local = 1.05266e-09, global = -3.50721e-11, cumulative = 2.2215e-06
ExecutionTime = 1.7 s  ClockTime = 2 s

Time = 2.05

Courant Number mean: 0.116666 max: 2.94388
smoothSolver:  Solving for Ux, Initial residual = 0.0025721, Final residual = 2.40973e-06, No Iterations 3
smoothSolver:  Solving for Uy, Initial residual = 0.00350639, Final residual = 3.49209e-06, No Iterations 3
DICPCG:  Solving for p, Initial residual = 0.0034464, Final residual = 0.000167731, No Iterations 29
time step continuity errors : sum local = 1.92095e-07, global = 2.85403e-08, cumulative = 2.25004e-06
DICPCG:  Solving for p, Initial residual = 0.0018464, Final residual = 9.11179e-07, No Iterations 82
time step continuity errors : sum local = 1.04519e-09, global = -3.3921e-11, cumulative = 2.25001e-06
ExecutionTime = 1.72 s  ClockTime = 2 s

Time = 2.075

Courant Number mean: 0.116919 max: 2.94553
smoothSolver:  Solving for Ux, Initial residual = 0.00256686, Final residual = 2.35912e-06, No Iterations 3
smoothSolver:  Solving for Uy, Initial residual = 0.00349839, Final residual = 3.41379e-06, No Iterations 3
DICPCG:  Solving for p, Initial residual = 0.00340535, Final residual = 0.000169541, No Iterations 29
time step continuity errors : sum local = 1.94631e-07, global = 2.86788e-08, cumulative = 2.27869e-06
DICPCG:  Solving for p, Initial residual = 0.00182278, Final residual = 8.96872e-07, No Iterations 82
time step continuity errors : sum local = 1.0312e-09, global = -3.23434e-11, cumulative = 2.27865e-06
ExecutionTime = 1.74 s  ClockTime = 2 s

Time = 2.1

Courant Number mean: 0.11717 max: 2.94716
smoothSolver:  Solving for Ux, Initial residual = 0.00256184, Final residual = 2.31091e-06, No Iterations 3
smoothSolver:  Solving for Uy, Initial residual = 0.00349103, Final residual = 3.33818e-06, No Iterations 3
DICPCG:  Solving for p, Initial residual = 0.00336746, Final residual = 0.000164918, No Iterations 29
time step continuity errors : sum local = 1.89768e-07, global = 2.82632e-08, cumulative = 2.30692e-06
DICPCG:  Solving for p, Initial residual = 0.00179727, Final residual = 8.93708e-07, No Iterations 82
time step continuity errors : sum local = 1.02995e-09, global = -3.1056e-11, cumulative = 2.30689e-06
ExecutionTime = 1.76 s  ClockTime = 2 s

Time = 2.125

Courant Number mean: 0.11742 max: 2.94878
smoothSolver:  Solving for Ux, Initial residual = 0.00255769, Final residual = 2.26466e-06, No Iterations 3
smoothSolver:  Solving for Uy, Initial residual = 0.0034842, Final residual = 3.26511e-06, No Iterations 3
DICPCG:  Solving for p, Initial residual = 0.00332951, Final residual = 0.000131295, No Iterations 30
time step continuity errors : sum local = 1.5143e-07, global = 2.64373e-08, cumulative = 2.33332e-06
DICPCG:  Solving for p, Initial residual = 0.00175818, Final residual = 8.77622e-07, No Iterations 82
time step continuity errors : sum local = 1.01374e-09, global = -3.1257e-11, cumulative = 2.33329e-06
ExecutionTime = 1.77 s  ClockTime = 2 s

Time = 2.15

Courant Number mean: 0.11767 max: 2.95039
smoothSolver:  Solving for Ux, Initial residual = 0.00255344, Final residual = 2.21989e-06, No Iterations 3
smoothSolver:  Solving for Uy, Initial residual = 0.00347714, Final residual = 3.19459e-06, No Iterations 3
DICPCG:  Solving for p, Initial residual = 0.00329121, Final residual = 0.000130586, No Iterations 30
time step continuity errors : sum local = 1.50958e-07, global = 2.62798e-08, cumulative = 2.35957e-06
DICPCG:  Solving for p, Initial residual = 0.00173383, Final residual = 8.70277e-07, No Iterations 82
time step continuity errors : sum local = 1.00756e-09, global = -3.12353e-11, cumulative = 2.35954e-06
ExecutionTime = 1.79 s  ClockTime = 2 s

Time = 2.175

Courant Number mean: 0.117921 max: 2.952
smoothSolver:  Solving for Ux, Initial residual = 0.0025492, Final residual = 2.17806e-06, No Iterations 3
smoothSolver:  Solving for Uy, Initial residual = 0.00347002, Final residual = 3.12765e-06, No Iterations 3
DICPCG:  Solving for p, Initial residual = 0.00325742, Final residual = 0.000129491, No Iterations 30
time step continuity errors : sum local = 1.50034e-07, global = 2.61327e-08, cumulative = 2.38567e-06
DICPCG:  Solving for p, Initial residual = 0.00171202, Final residual = 8.61684e-07, No Iterations 82
time step continuity errors : sum local = 9.99863e-10, global = -2.9913e-11, cumulative = 2.38564e-06
ExecutionTime = 1.8 s  ClockTime = 2 s

Time = 2.2

Courant Number mean: 0.118167 max: 2.95359
smoothSolver:  Solving for Ux, Initial residual = 0.00254608, Final residual = 2.1386e-06, No Iterations 3
smoothSolver:  Solving for Uy, Initial residual = 0.00346287, Final residual = 3.06384e-06, No Iterations 3
DICPCG:  Solving for p, Initial residual = 0.00322466, Final residual = 0.000128575, No Iterations 30
time step continuity errors : sum local = 1.49311e-07, global = 2.59973e-08, cumulative = 2.41164e-06
DICPCG:  Solving for p, Initial residual = 0.00169077, Final residual = 8.53361e-07, No Iterations 82
time step continuity errors : sum local = 9.92443e-10, global = -2.85823e-11, cumulative = 2.41161e-06
ExecutionTime = 1.82 s  ClockTime = 2 s

Time = 2.225

Courant Number mean: 0.118412 max: 2.95518
smoothSolver:  Solving for Ux, Initial residual = 0.00254301, Final residual = 2.10156e-06, No Iterations 3
smoothSolver:  Solving for Uy, Initial residual = 0.0034559, Final residual = 3.00239e-06, No Iterations 3
DICPCG:  Solving for p, Initial residual = 0.00319122, Final residual = 0.000127641, No Iterations 30
time step continuity errors : sum local = 1.48562e-07, global = 2.58642e-08, cumulative = 2.43748e-06
DICPCG:  Solving for p, Initial residual = 0.00167025, Final residual = 8.44283e-07, No Iterations 82
time step continuity errors : sum local = 9.84103e-10, global = -2.73074e-11, cumulative = 2.43745e-06
ExecutionTime = 1.84 s  ClockTime = 2 s

Time = 2.25

Courant Number mean: 0.118659 max: 2.95675
smoothSolver:  Solving for Ux, Initial residual = 0.00253987, Final residual = 2.06847e-06, No Iterations 3
smoothSolver:  Solving for Uy, Initial residual = 0.00344859, Final residual = 2.94325e-06, No Iterations 3
DICPCG:  Solving for p, Initial residual = 0.00315736, Final residual = 0.000126777, No Iterations 30
time step continuity errors : sum local = 1.47889e-07, global = 2.57339e-08, cumulative = 2.46318e-06
DICPCG:  Solving for p, Initial residual = 0.00165018, Final residual = 8.36001e-07, No Iterations 82
time step continuity errors : sum local = 9.76633e-10, global = -2.60895e-11, cumulative = 2.46316e-06
ExecutionTime = 1.89 s  ClockTime = 3 s

Time = 2.275

Courant Number mean: 0.118902 max: 2.95832
smoothSolver:  Solving for Ux, Initial residual = 0.00253681, Final residual = 2.03689e-06, No Iterations 3
smoothSolver:  Solving for Uy, Initial residual = 0.00344114, Final residual = 2.88764e-06, No Iterations 3
DICPCG:  Solving for p, Initial residual = 0.00312306, Final residual = 0.000125907, No Iterations 30
time step continuity errors : sum local = 1.47204e-07, global = 2.56067e-08, cumulative = 2.48876e-06
DICPCG:  Solving for p, Initial residual = 0.00163033, Final residual = 8.27808e-07, No Iterations 82
time step continuity errors : sum local = 9.69226e-10, global = -2.49475e-11, cumulative = 2.48874e-06
ExecutionTime = 1.91 s  ClockTime = 3 s

Time = 2.3

Courant Number mean: 0.119142 max: 2.95989
smoothSolver:  Solving for Ux, Initial residual = 0.00253397, Final residual = 2.00672e-06, No Iterations 3
smoothSolver:  Solving for Uy, Initial residual = 0.00343396, Final residual = 2.83409e-06, No Iterations 3
DICPCG:  Solving for p, Initial residual = 0.00308842, Final residual = 0.00012501, No Iterations 30
time step continuity errors : sum local = 1.4648e-07, global = 2.54822e-08, cumulative = 2.51422e-06
DICPCG:  Solving for p, Initial residual = 0.00161071, Final residual = 8.18608e-07, No Iterations 82
time step continuity errors : sum local = 9.60573e-10, global = -2.38713e-11, cumulative = 2.5142e-06
ExecutionTime = 1.92 s  ClockTime = 3 s

Time = 2.325

Courant Number mean: 0.119381 max: 2.96144
smoothSolver:  Solving for Ux, Initial residual = 0.00253133, Final residual = 1.97811e-06, No Iterations 3
smoothSolver:  Solving for Uy, Initial residual = 0.00342625, Final residual = 2.78217e-06, No Iterations 3
DICPCG:  Solving for p, Initial residual = 0.00305561, Final residual = 0.00012413, No Iterations 30
time step continuity errors : sum local = 1.45769e-07, global = 2.53607e-08, cumulative = 2.53956e-06
DICPCG:  Solving for p, Initial residual = 0.00159172, Final residual = 9.82709e-07, No Iterations 81
time step continuity errors : sum local = 1.15564e-09, global = -3.34389e-11, cumulative = 2.53953e-06
ExecutionTime = 1.94 s  ClockTime = 3 s

Time = 2.35

Courant Number mean: 0.11962 max: 2.96299
smoothSolver:  Solving for Ux, Initial residual = 0.00252931, Final residual = 9.93536e-06, No Iterations 2
smoothSolver:  Solving for Uy, Initial residual = 0.0034188, Final residual = 2.7324e-06, No Iterations 3
DICPCG:  Solving for p, Initial residual = 0.00301698, Final residual = 0.000125505, No Iterations 30
time step continuity errors : sum local = 1.47701e-07, global = 2.50251e-08, cumulative = 2.56455e-06
DICPCG:  Solving for p, Initial residual = 0.0015807, Final residual = 8.66032e-07, No Iterations 81
[...]

    Reconstructing volScalarFields

        p

    Reconstructing volVectorFields

        U

    Reconstructing surfaceScalarFields

        phi

Reconstructing point fields

No point fields

No lagrangian fields

Time = 0.75

Reconstructing FV fields

    Reconstructing volScalarFields

        p

    Reconstructing volVectorFields

        U

    Reconstructing surfaceScalarFields

        phi

Reconstructing point fields

No point fields

No lagrangian fields

Time = 1

Reconstructing FV fields

    Reconstructing volScalarFields

        p

    Reconstructing volVectorFields

        U

    Reconstructing surfaceScalarFields

        phi

Reconstructing point fields

No point fields

No lagrangian fields

Time = 1.25

Reconstructing FV fields

    Reconstructing volScalarFields

        p

    Reconstructing volVectorFields

        U

    Reconstructing surfaceScalarFields

        phi

Reconstructing point fields

No point fields

No lagrangian fields

Time = 1.5

Reconstructing FV fields

    Reconstructing volScalarFields

        p

    Reconstructing volVectorFields

        U

    Reconstructing surfaceScalarFields

        phi

Reconstructing point fields

No point fields

No lagrangian fields

Time = 1.75

Reconstructing FV fields

    Reconstructing volScalarFields

        p

    Reconstructing volVectorFields

        U

    Reconstructing surfaceScalarFields

        phi

Reconstructing point fields

No point fields

No lagrangian fields

Time = 2

Reconstructing FV fields

    Reconstructing volScalarFields

        p

    Reconstructing volVectorFields

        U

    Reconstructing surfaceScalarFields

        phi

Reconstructing point fields

No point fields

No lagrangian fields

Time = 2.25

Reconstructing FV fields

    Reconstructing volScalarFields

        p

    Reconstructing volVectorFields

        U

    Reconstructing surfaceScalarFields

        phi

Reconstructing point fields

No point fields

No lagrangian fields

Time = 2.5

Reconstructing FV fields

    Reconstructing volScalarFields

        p

    Reconstructing volVectorFields

        U

    Reconstructing surfaceScalarFields

        phi

Reconstructing point fields

No point fields

No lagrangian fields

Time = 2.75

Reconstructing FV fields

    Reconstructing volScalarFields

        p

    Reconstructing volVectorFields

        U

    Reconstructing surfaceScalarFields

        phi

Reconstructing point fields

No point fields

No lagrangian fields

Time = 3

Reconstructing FV fields

    Reconstructing volScalarFields

        p

    Reconstructing volVectorFields

        U

    Reconstructing surfaceScalarFields

        phi

Reconstructing point fields

No point fields

No lagrangian fields

Time = 3.25

Reconstructing FV fields

    Reconstructing volScalarFields

        p

    Reconstructing volVectorFields

        U

    Reconstructing surfaceScalarFields

        phi

Reconstructing point fields

No point fields

No lagrangian fields

Time = 3.5

Reconstructing FV fields

    Reconstructing volScalarFields

        p

    Reconstructing volVectorFields

        U

    Reconstructing surfaceScalarFields

        phi

Reconstructing point fields

No point fields

No lagrangian fields

Time = 3.75

Reconstructing FV fields

    Reconstructing volScalarFields

        p

    Reconstructing volVectorFields

        U

    Reconstructing surfaceScalarFields

        phi

Reconstructing point fields

No point fields

No lagrangian fields

Time = 4

Reconstructing FV fields

    Reconstructing volScalarFields

        p

    Reconstructing volVectorFields

        U

    Reconstructing surfaceScalarFields

        phi

Reconstructing point fields

No point fields

No lagrangian fields

Time = 4.25

Reconstructing FV fields

    Reconstructing volScalarFields

        p

    Reconstructing volVectorFields

        U

    Reconstructing surfaceScalarFields

        phi

Reconstructing point fields

No point fields

No lagrangian fields

Time = 4.5

Reconstructing FV fields

    Reconstructing volScalarFields

        p

    Reconstructing volVectorFields

        U

    Reconstructing surfaceScalarFields

        phi

Reconstructing point fields

No point fields

No lagrangian fields

Time = 4.75

Reconstructing FV fields

    Reconstructing volScalarFields

        p

    Reconstructing volVectorFields

        U

    Reconstructing surfaceScalarFields

        phi

Reconstructing point fields

No point fields

No lagrangian fields

Time = 5

Reconstructing FV fields

    Reconstructing volScalarFields

        p

    Reconstructing volVectorFields

        U

    Reconstructing surfaceScalarFields

        phi

Reconstructing point fields

No point fields

No lagrangian fields

Time = 5.25

Reconstructing FV fields

    Reconstructing volScalarFields

        p

    Reconstructing volVectorFields

        U

    Reconstructing surfaceScalarFields

        phi

Reconstructing point fields

No point fields

No lagrangian fields

Time = 5.5

Reconstructing FV fields

    Reconstructing volScalarFields

        p

    Reconstructing volVectorFields

        U

    Reconstructing surfaceScalarFields

        phi

Reconstructing point fields

No point fields

No lagrangian fields

Time = 5.75

Reconstructing FV fields

    Reconstructing volScalarFields

        p

    Reconstructing volVectorFields

        U

    Reconstructing surfaceScalarFields

        phi

Reconstructing point fields

No point fields

No lagrangian fields

Time = 6

Reconstructing FV fields

    Reconstructing volScalarFields

        p

    Reconstructing volVectorFields

        U

    Reconstructing surfaceScalarFields

        phi

Reconstructing point fields

No point fields

No lagrangian fields

Time = 6.25

Reconstructing FV fields

    Reconstructing volScalarFields

        p

    Reconstructing volVectorFields

        U

    Reconstructing surfaceScalarFields

        phi

Reconstructing point fields

No point fields

No lagrangian fields

Time = 6.5

Reconstructing FV fields

    Reconstructing volScalarFields

        p

    Reconstructing volVectorFields

        U

    Reconstructing surfaceScalarFields

        phi

Reconstructing point fields

No point fields

No lagrangian fields

Time = 6.75

Reconstructing FV fields

    Reconstructing volScalarFields

        p

    Reconstructing volVectorFields

        U

    Reconstructing surfaceScalarFields

        phi

Reconstructing point fields

No point fields

No lagrangian fields

Time = 7

Reconstructing FV fields

    Reconstructing volScalarFields

        p

    Reconstructing volVectorFields

        U

    Reconstructing surfaceScalarFields

        phi

Reconstructing point fields

No point fields

No lagrangian fields

Time = 7.25

Reconstructing FV fields

    Reconstructing volScalarFields

        p

    Reconstructing volVectorFields

        U

    Reconstructing surfaceScalarFields

        phi

Reconstructing point fields

No point fields

No lagrangian fields

Time = 7.5

Reconstructing FV fields

    Reconstructing volScalarFields

        p

    Reconstructing volVectorFields

        U

    Reconstructing surfaceScalarFields

        phi

Reconstructing point fields

No point fields

No lagrangian fields

Time = 7.75

Reconstructing FV fields

    Reconstructing volScalarFields

        p

    Reconstructing volVectorFields

        U

    Reconstructing surfaceScalarFields

        phi

Reconstructing point fields

No point fields

No lagrangian fields

Time = 8

Reconstructing FV fields

    Reconstructing volScalarFields

        p

    Reconstructing volVectorFields

        U

    Reconstructing surfaceScalarFields

        phi

Reconstructing point fields

No point fields

No lagrangian fields

Time = 8.25

Reconstructing FV fields

    Reconstructing volScalarFields

        p

    Reconstructing volVectorFields

        U

    Reconstructing surfaceScalarFields

        phi

Reconstructing point fields

No point fields

No lagrangian fields

Time = 8.5

Reconstructing FV fields

    Reconstructing volScalarFields

        p

    Reconstructing volVectorFields

        U

    Reconstructing surfaceScalarFields

        phi

Reconstructing point fields

No point fields

No lagrangian fields

Time = 8.75

Reconstructing FV fields

    Reconstructing volScalarFields

        p

    Reconstructing volVectorFields

        U

    Reconstructing surfaceScalarFields

        phi

Reconstructing point fields

No point fields

No lagrangian fields

Time = 9

Reconstructing FV fields

    Reconstructing volScalarFields

        p

    Reconstructing volVectorFields

        U

    Reconstructing surfaceScalarFields

        phi

Reconstructing point fields

No point fields

No lagrangian fields

Time = 9.25

Reconstructing FV fields

    Reconstructing volScalarFields

        p

    Reconstructing volVectorFields

        U

    Reconstructing surfaceScalarFields

        phi

Reconstructing point fields

No point fields

No lagrangian fields

Time = 9.5

Reconstructing FV fields

    Reconstructing volScalarFields

        p

    Reconstructing volVectorFields

        U

    Reconstructing surfaceScalarFields

        phi

Reconstructing point fields

No point fields

No lagrangian fields

Time = 9.75

Reconstructing FV fields

    Reconstructing volScalarFields

        p

    Reconstructing volVectorFields

        U

    Reconstructing surfaceScalarFields

        phi

Reconstructing point fields

No point fields

No lagrangian fields

Time = 10

Reconstructing FV fields

    Reconstructing volScalarFields

        p

    Reconstructing volVectorFields

        U

    Reconstructing surfaceScalarFields

        phi

Reconstructing point fields

No point fields

No lagrangian fields

Time = 10.25

Reconstructing FV fields

    Reconstructing volScalarFields

        p

    Reconstructing volVectorFields

        U

    Reconstructing surfaceScalarFields

        phi

Reconstructing point fields

No point fields

No lagrangian fields

Time = 10.5

Reconstructing FV fields

    Reconstructing volScalarFields

        p

    Reconstructing volVectorFields

        U

    Reconstructing surfaceScalarFields

        phi

Reconstructing point fields

No point fields

No lagrangian fields

Time = 10.75

Reconstructing FV fields

    Reconstructing volScalarFields

        p

    Reconstructing volVectorFields

        U

    Reconstructing surfaceScalarFields

        phi

Reconstructing point fields

No point fields

No lagrangian fields

Time = 11

Reconstructing FV fields

    Reconstructing volScalarFields

        p

    Reconstructing volVectorFields

        U

    Reconstructing surfaceScalarFields

        phi

Reconstructing point fields

No point fields

No lagrangian fields

Time = 11.25

Reconstructing FV fields

    Reconstructing volScalarFields

        p

    Reconstructing volVectorFields

        U

    Reconstructing surfaceScalarFields

        phi

Reconstructing point fields

No point fields

No lagrangian fields

Time = 11.5

Reconstructing FV fields

    Reconstructing volScalarFields

        p

    Reconstructing volVectorFields

        U

    Reconstructing surfaceScalarFields

        phi

Reconstructing point fields

No point fields

No lagrangian fields

Time = 11.75

Reconstructing FV fields

    Reconstructing volScalarFields

        p

    Reconstructing volVectorFields

        U

    Reconstructing surfaceScalarFields

        phi

Reconstructing point fields

No point fields

No lagrangian fields

Time = 12

Reconstructing FV fields

    Reconstructing volScalarFields

        p

    Reconstructing volVectorFields

        U

    Reconstructing surfaceScalarFields

        phi

Reconstructing point fields

No point fields

No lagrangian fields

Time = 12.25

Reconstructing FV fields

    Reconstructing volScalarFields

        p

    Reconstructing volVectorFields

        U

    Reconstructing surfaceScalarFields

        phi

Reconstructing point fields

No point fields

No lagrangian fields

Time = 12.5

Reconstructing FV fields

    Reconstructing volScalarFields

        p

    Reconstructing volVectorFields

        U

    Reconstructing surfaceScalarFields

        phi

Reconstructing point fields

No point fields

No lagrangian fields

Time = 12.75

Reconstructing FV fields

    Reconstructing volScalarFields

        p

    Reconstructing volVectorFields

        U

    Reconstructing surfaceScalarFields

        phi

Reconstructing point fields

No point fields

No lagrangian fields

Time = 13

Reconstructing FV fields

    Reconstructing volScalarFields

        p

    Reconstructing volVectorFields

        U

    Reconstructing surfaceScalarFields

        phi

Reconstructing point fields

No point fields

No lagrangian fields

Time = 13.25

Reconstructing FV fields

    Reconstructing volScalarFields

        p

    Reconstructing volVectorFields

        U

    Reconstructing surfaceScalarFields

        phi

Reconstructing point fields

No point fields

No lagrangian fields

Time = 13.5

Reconstructing FV fields

    Reconstructing volScalarFields

        p

    Reconstructing volVectorFields

        U

    Reconstructing surfaceScalarFields

        phi

Reconstructing point fields

No point fields

No lagrangian fields

Time = 13.75

Reconstructing FV fields

    Reconstructing volScalarFields

        p

    Reconstructing volVectorFields

        U

    Reconstructing surfaceScalarFields

        phi

Reconstructing point fields

No point fields

No lagrangian fields

Time = 14

Reconstructing FV fields

    Reconstructing volScalarFields

        p

    Reconstructing volVectorFields

        U

    Reconstructing surfaceScalarFields

        phi

Reconstructing point fields

No point fields

No lagrangian fields

Time = 14.25

Reconstructing FV fields

    Reconstructing volScalarFields

        p

    Reconstructing volVectorFields

        U

    Reconstructing surfaceScalarFields

        phi

Reconstructing point fields

No point fields

No lagrangian fields

Time = 14.5

Reconstructing FV fields

    Reconstructing volScalarFields

        p

    Reconstructing volVectorFields

        U

    Reconstructing surfaceScalarFields

        phi

Reconstructing point fields

No point fields

No lagrangian fields

Time = 14.75

Reconstructing FV fields

    Reconstructing volScalarFields

        p

    Reconstructing volVectorFields

        U

    Reconstructing surfaceScalarFields

        phi

Reconstructing point fields

No point fields

No lagrangian fields

Time = 15

Reconstructing FV fields

    Reconstructing volScalarFields

        p

    Reconstructing volVectorFields

        U

    Reconstructing surfaceScalarFields

        phi

Reconstructing point fields

No point fields

No lagrangian fields

Time = 15.25

Reconstructing FV fields

    Reconstructing volScalarFields

        p

    Reconstructing volVectorFields

        U

    Reconstructing surfaceScalarFields

        phi

Reconstructing point fields

No point fields

No lagrangian fields

Time = 15.5

Reconstructing FV fields

    Reconstructing volScalarFields

        p

    Reconstructing volVectorFields

        U

    Reconstructing surfaceScalarFields

        phi

Reconstructing point fields

No point fields

No lagrangian fields

Time = 15.75

Reconstructing FV fields

    Reconstructing volScalarFields

        p

    Reconstructing volVectorFields

        U

    Reconstructing surfaceScalarFields

        phi

Reconstructing point fields

No point fields

No lagrangian fields

Time = 16

Reconstructing FV fields

    Reconstructing volScalarFields

        p

    Reconstructing volVectorFields

        U

    Reconstructing surfaceScalarFields

        phi

Reconstructing point fields

No point fields

No lagrangian fields

Time = 16.25

Reconstructing FV fields

    Reconstructing volScalarFields

        p

    Reconstructing volVectorFields

        U

    Reconstructing surfaceScalarFields

        phi

Reconstructing point fields

No point fields

No lagrangian fields

Time = 16.5

Reconstructing FV fields

    Reconstructing volScalarFields

        p

    Reconstructing volVectorFields

        U

    Reconstructing surfaceScalarFields

        phi

Reconstructing point fields

No point fields

No lagrangian fields

Time = 16.75

Reconstructing FV fields

    Reconstructing volScalarFields

        p

    Reconstructing volVectorFields

        U

    Reconstructing surfaceScalarFields

        phi

Reconstructing point fields

No point fields

No lagrangian fields

Time = 17

Reconstructing FV fields

    Reconstructing volScalarFields

        p

    Reconstructing volVectorFields

        U

    Reconstructing surfaceScalarFields

        phi

Reconstructing point fields

No point fields

No lagrangian fields

Time = 17.25

Reconstructing FV fields

    Reconstructing volScalarFields

        p

    Reconstructing volVectorFields

        U

    Reconstructing surfaceScalarFields

        phi

Reconstructing point fields

No point fields

No lagrangian fields

Time = 17.5

Reconstructing FV fields

    Reconstructing volScalarFields

        p

    Reconstructing volVectorFields

        U

    Reconstructing surfaceScalarFields

        phi

Reconstructing point fields

No point fields

No lagrangian fields

Time = 17.75

Reconstructing FV fields

    Reconstructing volScalarFields

        p

    Reconstructing volVectorFields

        U

    Reconstructing surfaceScalarFields

        phi

Reconstructing point fields

No point fields

No lagrangian fields

Time = 18

Reconstructing FV fields

    Reconstructing volScalarFields

        p

    Reconstructing volVectorFields

        U

    Reconstructing surfaceScalarFields

        phi

Reconstructing point fields

No point fields

No lagrangian fields

Time = 18.25

Reconstructing FV fields

    Reconstructing volScalarFields

        p

    Reconstructing volVectorFields

        U

    Reconstructing surfaceScalarFields

        phi

Reconstructing point fields

No point fields

No lagrangian fields

Time = 18.5

Reconstructing FV fields

    Reconstructing volScalarFields

        p

    Reconstructing volVectorFields

        U

    Reconstructing surfaceScalarFields

        phi

Reconstructing point fields

No point fields

No lagrangian fields

Time = 18.75

Reconstructing FV fields

    Reconstructing volScalarFields

        p

    Reconstructing volVectorFields

        U

    Reconstructing surfaceScalarFields

        phi

Reconstructing point fields

No point fields

No lagrangian fields

Time = 19

Reconstructing FV fields

    Reconstructing volScalarFields

        p

    Reconstructing volVectorFields

        U

    Reconstructing surfaceScalarFields

        phi

Reconstructing point fields

No point fields

No lagrangian fields

Time = 19.25

Reconstructing FV fields

    Reconstructing volScalarFields

        p

    Reconstructing volVectorFields

        U

    Reconstructing surfaceScalarFields

        phi

Reconstructing point fields

No point fields

No lagrangian fields

Time = 19.5

Reconstructing FV fields

    Reconstructing volScalarFields

        p

    Reconstructing volVectorFields

        U

    Reconstructing surfaceScalarFields

        phi

Reconstructing point fields

No point fields

No lagrangian fields

Time = 19.75

Reconstructing FV fields

    Reconstructing volScalarFields

        p

    Reconstructing volVectorFields

        U

    Reconstructing surfaceScalarFields

        phi

Reconstructing point fields

No point fields

No lagrangian fields

Time = 20

Reconstructing FV fields

    Reconstructing volScalarFields

        p

    Reconstructing volVectorFields

        U

    Reconstructing surfaceScalarFields

        phi

Reconstructing point fields

No point fields

No lagrangian fields


End

