/work/05113/danieler/stampede2/CFD-Final-Project/circular-cylinder-10-10
Wed May 13 09:24:57 CDT 2020
/*---------------------------------------------------------------------------*\
  =========                 |
  \\      /  F ield         | OpenFOAM: The Open Source CFD Toolbox
   \\    /   O peration     | Website:  https://openfoam.org
    \\  /    A nd           | Version:  6.0
     \\/     M anipulation  |
\*---------------------------------------------------------------------------*/
Build  : 6.0
Exec   : blockMesh
Date   : May 13 2020
Time   : 09:24:59
Host   : "c421-042.stampede2.tacc.utexas.edu"
PID    : 67349
I/O    : uncollated
Case   : /work/05113/danieler/stampede2/CFD-Final-Project/circular-cylinder-10-10
nProcs : 1
sigFpe : Enabling floating point exception trapping (FOAM_SIGFPE).
fileModificationChecking : Monitoring run-time modified files using timeStampMaster (fileModificationSkew 10)
allowSystemOperations : Allowing user-supplied system call operations

// * * * * * * * * * * * * * * * * * * * * * * * * * * * * * * * * * * * * * //
Create time

Deleting polyMesh directory
    "/work/05113/danieler/stampede2/CFD-Final-Project/circular-cylinder-10-10/constant/polyMesh"
Creating block mesh from
    "/work/05113/danieler/stampede2/CFD-Final-Project/circular-cylinder-10-10/system/blockMeshDict"
Creating block edges
No non-planar block faces defined
Creating topology blocks
Creating topology patches

Creating block mesh topology

Check topology

	Basic statistics
		Number of internal faces : 28
		Number of boundary faces : 64
		Number of defined boundary faces : 64
		Number of undefined boundary faces : 0
	Checking patch -> block consistency

Creating block offsets
Creating merge list .

Creating polyMesh from blockMesh
Creating points with scale 1
    Block 0 cell size :
        i : 0.05 .. 0.05
        j : 0.0392592 .. 0.0392592
        k : 1 .. 1

    Block 1 cell size :
        i : 0.0392592 .. 0.0392592
        j : 0.05 .. 0.05
        k : 1 .. 1

    Block 2 cell size :
        i : 0.0392592 .. 0.0392592
        j : 0.0499924 .. 0.0499924
        k : 1 .. 1

    Block 3 cell size :
        i : 0.05 .. 0.05
        j : 0.0785183 .. 0.0785183
        k : 1 .. 1

    Block 4 cell size :
        i : 0.0499924 .. 0.0499924
        j : 0.0785183 .. 0.0785183
        k : 1 .. 1

    Block 5 cell size :
        i : 0.0785183 .. 0.0785183
        j : 0.0499924 .. 0.0499924
        k : 1 .. 1

    Block 6 cell size :
        i : 0.0785183 .. 0.0785183
        j : 0.05 .. 0.05
        k : 1 .. 1

    Block 7 cell size :
        i : 0.0499924 .. 0.0499924
        j : 0.0392592 .. 0.0392592
        k : 1 .. 1

    Block 8 cell size :
        i : 0.26355 .. 1.0542
        j : 0.0785183 .. 0.0785183
        k : 1 .. 1

    Block 9 cell size :
        i : 0.270262 .. 1.08105
        j : 0.126864 .. 0.507457
        k : 1 .. 1

    Block 10 cell size :
        i : 0.0785183 .. 0.0785183
        j : 0.11356 .. 0.454238
        k : 1 .. 1

    Block 11 cell size :
        i : 0.0785183 .. 0.0785183
        j : 0.126864 .. 0.507457
        k : 1 .. 1

    Block 12 cell size :
        i : 0.27929 .. 0.27929
        j : 0.126864 .. 0.507457
        k : 1 .. 1

    Block 13 cell size :
        i : 0.25 .. 0.25
        j : 0.07071 .. 0.07071
        k : 1 .. 1

    Block 14 cell size :
        i : 0.27929 .. 0.27929
        j : 0.07071 .. 0.07071
        k : 1 .. 1

    Block 15 cell size :
        i : 0.27929 .. 0.27929
        j : 0.507457 .. 0.126864
        k : 1 .. 1

    Block 16 cell size :
        i : 0.07071 .. 0.07071
        j : 0.507457 .. 0.126864
        k : 1 .. 1

    Block 17 cell size :
        i : 0.07071 .. 0.07071
        j : 0.454238 .. 0.11356
        k : 1 .. 1

    Block 18 cell size :
        i : 0.270262 .. 1.08105
        j : 0.507457 .. 0.126864
        k : 1 .. 1

    Block 19 cell size :
        i : 0.270262 .. 1.08105
        j : 0.0785183 .. 0.0785183
        k : 1 .. 1

Creating cells
Creating patches

Writing polyMesh
----------------
Mesh Information
----------------
  boundingBox: (-3.5 -3.5 0) (12.5 3.5 1)
  nPoints: 5060
  nCells: 2400
  nFaces: 9730
  nInternalFaces: 4670
----------------
Patches
----------------
  patch 0 (start: 4670 size: 40) name: inlet
  patch 1 (start: 4710 size: 40) name: outlet
  patch 2 (start: 4750 size: 50) name: top
  patch 3 (start: 4800 size: 50) name: bottom
  patch 4 (start: 4850 size: 80) name: cylinder
  patch 5 (start: 4930 size: 4800) name: frontandback

End

/*---------------------------------------------------------------------------*\
  =========                 |
  \\      /  F ield         | OpenFOAM: The Open Source CFD Toolbox
   \\    /   O peration     | Website:  https://openfoam.org
    \\  /    A nd           | Version:  6.0
     \\/     M anipulation  |
\*---------------------------------------------------------------------------*/
Build  : 6.0
Exec   : checkMesh
Date   : May 13 2020
Time   : 09:25:00
Host   : "c421-042.stampede2.tacc.utexas.edu"
PID    : 67357
I/O    : uncollated
Case   : /work/05113/danieler/stampede2/CFD-Final-Project/circular-cylinder-10-10
nProcs : 1
sigFpe : Enabling floating point exception trapping (FOAM_SIGFPE).
fileModificationChecking : Monitoring run-time modified files using timeStampMaster (fileModificationSkew 10)
allowSystemOperations : Allowing user-supplied system call operations

// * * * * * * * * * * * * * * * * * * * * * * * * * * * * * * * * * * * * * //
Create time

Create polyMesh for time = 0

Time = 0

Mesh stats
    points:           5060
    internal points:  0
    faces:            9730
    internal faces:   4670
    cells:            2400
    faces per cell:   6
    boundary patches: 6
    point zones:      0
    face zones:       0
    cell zones:       0

Overall number of cells of each type:
    hexahedra:     2400
    prisms:        0
    wedges:        0
    pyramids:      0
    tet wedges:    0
    tetrahedra:    0
    polyhedra:     0

Checking topology...
    Boundary definition OK.
    Cell to face addressing OK.
    Point usage OK.
    Upper triangular ordering OK.
    Face vertices OK.
    Number of regions: 1 (OK).

Checking patch topology for multiply connected surfaces...
    Patch               Faces    Points   Surface topology                  
    inlet               40       82       ok (non-closed singly connected)  
    outlet              40       82       ok (non-closed singly connected)  
    top                 50       102      ok (non-closed singly connected)  
    bottom              50       102      ok (non-closed singly connected)  
    cylinder            80       160      ok (non-closed singly connected)  
    frontandback        4800     5060     ok (non-closed singly connected)  

Checking geometry...
    Overall domain bounding box (-3.5 -3.5 0) (12.5 3.5 1)
    Mesh has 2 geometric (non-empty/wedge) directions (1 1 0)
    Mesh has 2 solution (non-empty) directions (1 1 0)
    All edges aligned with or perpendicular to non-empty directions.
    Boundary openness (-1.63526e-18 9.40272e-18 -1.04237e-15) OK.
    Max cell openness = 2.18433e-16 OK.
    Max aspect ratio = 15.2885 OK.
    Minimum face area = 0.00205925. Maximum face area = 1.08105.  Face area magnitudes OK.
    Min volume = 0.00205925. Max volume = 0.548585.  Total volume = 111.215.  Cell volumes OK.
    Mesh non-orthogonality Max: 41.969 average: 11.2951
    Non-orthogonality check OK.
    Face pyramids OK.
    Max skewness = 0.47037 OK.
    Coupled point location match (average 0) OK.

Mesh OK.

End

/*---------------------------------------------------------------------------*\
  =========                 |
  \\      /  F ield         | OpenFOAM: The Open Source CFD Toolbox
   \\    /   O peration     | Website:  https://openfoam.org
    \\  /    A nd           | Version:  6.0
     \\/     M anipulation  |
\*---------------------------------------------------------------------------*/
Build  : 6.0
Exec   : decomposePar
Date   : May 13 2020
Time   : 09:25:01
Host   : "c421-042.stampede2.tacc.utexas.edu"
PID    : 67413
I/O    : uncollated
Case   : /work/05113/danieler/stampede2/CFD-Final-Project/circular-cylinder-10-10
nProcs : 1
sigFpe : Enabling floating point exception trapping (FOAM_SIGFPE).
fileModificationChecking : Monitoring run-time modified files using timeStampMaster (fileModificationSkew 10)
allowSystemOperations : Allowing user-supplied system call operations

// * * * * * * * * * * * * * * * * * * * * * * * * * * * * * * * * * * * * * //
Create time



Decomposing mesh region0

Create mesh

Calculating distribution of cells
Selecting decompositionMethod hierarchical

Finished decomposition in 0 s

Calculating original mesh data

Distributing cells to processors

Distributing faces to processors

Distributing points to processors

Constructing processor meshes

Processor 0
    Number of cells = 600
    Number of faces shared with processor 1 = 62
    Number of processor patches = 1
    Number of processor faces = 62
    Number of boundary faces = 1264

Processor 1
    Number of cells = 600
    Number of faces shared with processor 0 = 62
    Number of faces shared with processor 2 = 49
    Number of processor patches = 2
    Number of processor faces = 111
    Number of boundary faces = 1281

Processor 2
    Number of cells = 600
    Number of faces shared with processor 1 = 49
    Number of faces shared with processor 3 = 40
    Number of processor patches = 2
    Number of processor faces = 89
    Number of boundary faces = 1245

Processor 3
    Number of cells = 600
    Number of faces shared with processor 2 = 40
    Number of processor patches = 1
    Number of processor faces = 40
    Number of boundary faces = 1270

Number of processor faces = 151
Max number of cells = 600 (0% above average 600)
Max number of processor patches = 2 (33.3333% above average 1.5)
Max number of faces between processors = 111 (47.0199% above average 75.5)

Time = 0
--> FOAM Warning : 
    From function bool Foam::IOobject::readHeader(Foam::Istream &)
    in file db/IOobject/IOobjectReadHeader.C at line 88
    Reading "/work/05113/danieler/stampede2/CFD-Final-Project/circular-cylinder-10-10/0/log" at line 8
    First token could not be read or is not the keyword 'FoamFile'

Check header is of the form:

/*--------------------------------*- C++ -*----------------------------------*\
  =========                 |
  \\      /  F ield         | OpenFOAM: The Open Source CFD Toolbox
   \\    /   O peration     | Website:  https://openfoam.org
    \\  /    A nd           | Version:  6.0
     \\/     M anipulation  |
\*---------------------------------------------------------------------------*/
FoamFile
{
    version     2.0;
    format      ascii;
    class       IOobject;
    location    "0";
    object      log;
}
// * * * * * * * * * * * * * * * * * * * * * * * * * * * * * * * * * * * * * //


Processor 0: field transfer
Processor 1: field transfer
Processor 2: field transfer
Processor 3: field transfer

End

TACC:  Starting up job 5690044 
TACC:  Starting parallel tasks... 
/*---------------------------------------------------------------------------*\
  =========                 |
  \\      /  F ield         | OpenFOAM: The Open Source CFD Toolbox
   \\    /   O peration     | Website:  https://openfoam.org
    \\  /    A nd           | Version:  6.0
     \\/     M anipulation  |
\*---------------------------------------------------------------------------*/
Build  : 6.0
Exec   : /home1/apps/intel18/impi18_0/OpenFOAM/OpenFOAM-6.0/platforms/linux64IccDPInt32Opt/bin/icoFoam -parallel
Date   : May 13 2020
Time   : 09:25:05
Host   : "c421-042.stampede2.tacc.utexas.edu"
PID    : 67544
I/O    : uncollated
Case   : /work/05113/danieler/stampede2/CFD-Final-Project/circular-cylinder-10-10
nProcs : 4
Slaves : 
3
(
"c421-042.stampede2.tacc.utexas.edu.67545"
"c421-042.stampede2.tacc.utexas.edu.67546"
"c421-042.stampede2.tacc.utexas.edu.67547"
)

Pstream initialized with:
    floatTransfer      : 0
    nProcsSimpleSum    : 0
    commsType          : nonBlocking
    polling iterations : 0
sigFpe : Enabling floating point exception trapping (FOAM_SIGFPE).
fileModificationChecking : Monitoring run-time modified files using timeStampMaster (fileModificationSkew 10)
allowSystemOperations : Allowing user-supplied system call operations

// * * * * * * * * * * * * * * * * * * * * * * * * * * * * * * * * * * * * * //
Create time

Create mesh for time = 0

Reading transportProperties

Reading field p

Reading field U

Reading/calculating face flux field phi


Starting time loop

Time = 0.0175

Courant Number mean: 0.0592455 max: 0.522287
smoothSolver:  Solving for Ux, Initial residual = 1, Final residual = 5.59197e-06, No Iterations 8
smoothSolver:  Solving for Uy, Initial residual = 1, Final residual = 6.55769e-06, No Iterations 8
DICPCG:  Solving for p, Initial residual = 1, Final residual = 0.0444611, No Iterations 59
time step continuity errors : sum local = 1.45801e-05, global = -1.03818e-07, cumulative = -1.03818e-07
DICPCG:  Solving for p, Initial residual = 0.281795, Final residual = 9.37276e-07, No Iterations 101
time step continuity errors : sum local = 1.09198e-09, global = -8.42399e-12, cumulative = -1.03826e-07
ExecutionTime = 0.13 s  ClockTime = 0 s

Time = 0.035

Courant Number mean: 0.0618575 max: 1.28446
smoothSolver:  Solving for Ux, Initial residual = 0.302371, Final residual = 3.01199e-06, No Iterations 7
smoothSolver:  Solving for Uy, Initial residual = 0.31221, Final residual = 3.90697e-06, No Iterations 7
DICPCG:  Solving for p, Initial residual = 0.367222, Final residual = 0.014769, No Iterations 59
time step continuity errors : sum local = 1.53089e-05, global = 4.31605e-07, cumulative = 3.27779e-07
DICPCG:  Solving for p, Initial residual = 0.571586, Final residual = 9.79582e-07, No Iterations 103
time step continuity errors : sum local = 5.59599e-10, global = 3.81543e-12, cumulative = 3.27783e-07
ExecutionTime = 0.15 s  ClockTime = 0 s

Time = 0.0525

Courant Number mean: 0.0626139 max: 1.5131
smoothSolver:  Solving for Ux, Initial residual = 0.0364982, Final residual = 9.05893e-06, No Iterations 5
smoothSolver:  Solving for Uy, Initial residual = 0.0397459, Final residual = 4.95655e-06, No Iterations 6
DICPCG:  Solving for p, Initial residual = 0.367489, Final residual = 0.0182497, No Iterations 22
time step continuity errors : sum local = 4.02534e-06, global = -5.99717e-07, cumulative = -2.71933e-07
DICPCG:  Solving for p, Initial residual = 0.0939643, Final residual = 9.68561e-07, No Iterations 91
time step continuity errors : sum local = 2.42596e-10, global = 6.12372e-13, cumulative = -2.71933e-07
ExecutionTime = 0.16 s  ClockTime = 0 s

Time = 0.07

Courant Number mean: 0.0631161 max: 1.64102
smoothSolver:  Solving for Ux, Initial residual = 0.0300899, Final residual = 6.49545e-06, No Iterations 5
smoothSolver:  Solving for Uy, Initial residual = 0.034741, Final residual = 3.5274e-06, No Iterations 6
DICPCG:  Solving for p, Initial residual = 0.169561, Final residual = 0.0077237, No Iterations 21
time step continuity errors : sum local = 2.21888e-06, global = 2.5539e-07, cumulative = -1.65428e-08
DICPCG:  Solving for p, Initial residual = 0.0492016, Final residual = 8.1135e-07, No Iterations 93
time step continuity errors : sum local = 2.49339e-10, global = 1.79478e-12, cumulative = -1.6541e-08
ExecutionTime = 0.18 s  ClockTime = 0 s

Time = 0.0875

Courant Number mean: 0.0635552 max: 1.7171
smoothSolver:  Solving for Ux, Initial residual = 0.0209036, Final residual = 4.99767e-06, No Iterations 5
smoothSolver:  Solving for Uy, Initial residual = 0.0263394, Final residual = 9.25081e-06, No Iterations 5
DICPCG:  Solving for p, Initial residual = 0.117847, Final residual = 0.00544097, No Iterations 17
time step continuity errors : sum local = 1.70402e-06, global = 2.33164e-08, cumulative = 6.7754e-09
DICPCG:  Solving for p, Initial residual = 0.0377971, Final residual = 9.18886e-07, No Iterations 92
time step continuity errors : sum local = 3.0352e-10, global = 5.22774e-12, cumulative = 6.78063e-09
ExecutionTime = 0.19 s  ClockTime = 0 s

Time = 0.105

Courant Number mean: 0.063948 max: 1.76528
smoothSolver:  Solving for Ux, Initial residual = 0.0163517, Final residual = 4.00223e-06, No Iterations 5
smoothSolver:  Solving for Uy, Initial residual = 0.021453, Final residual = 7.2855e-06, No Iterations 5
DICPCG:  Solving for p, Initial residual = 0.0858964, Final residual = 0.00387961, No Iterations 17
time step continuity errors : sum local = 1.32158e-06, global = 2.78687e-08, cumulative = 3.46493e-08
DICPCG:  Solving for p, Initial residual = 0.03009, Final residual = 7.79986e-07, No Iterations 91
time step continuity errors : sum local = 2.76366e-10, global = 5.57698e-12, cumulative = 3.46549e-08
ExecutionTime = 0.21 s  ClockTime = 0 s

Time = 0.1225

Courant Number mean: 0.064274 max: 1.79812
smoothSolver:  Solving for Ux, Initial residual = 0.0135249, Final residual = 3.28955e-06, No Iterations 5
smoothSolver:  Solving for Uy, Initial residual = 0.0181301, Final residual = 5.86146e-06, No Iterations 5
DICPCG:  Solving for p, Initial residual = 0.0653337, Final residual = 0.00289872, No Iterations 17
time step continuity errors : sum local = 1.05194e-06, global = 1.54446e-08, cumulative = 5.00995e-08
DICPCG:  Solving for p, Initial residual = 0.0247061, Final residual = 9.59473e-07, No Iterations 90
time step continuity errors : sum local = 3.5933e-10, global = 2.46829e-12, cumulative = 5.01019e-08
ExecutionTime = 0.22 s  ClockTime = 0 s

Time = 0.14

Courant Number mean: 0.0645597 max: 1.82208
smoothSolver:  Solving for Ux, Initial residual = 0.0116246, Final residual = 2.7568e-06, No Iterations 5
smoothSolver:  Solving for Uy, Initial residual = 0.0157683, Final residual = 4.80248e-06, No Iterations 5
DICPCG:  Solving for p, Initial residual = 0.052505, Final residual = 0.0023496, No Iterations 17
time step continuity errors : sum local = 8.97785e-07, global = 9.97245e-09, cumulative = 6.00744e-08
DICPCG:  Solving for p, Initial residual = 0.0209222, Final residual = 9.00201e-07, No Iterations 89
time step continuity errors : sum local = 3.52564e-10, global = -1.56158e-12, cumulative = 6.00728e-08
ExecutionTime = 0.25 s  ClockTime = 0 s

Time = 0.1575

Courant Number mean: 0.0648214 max: 1.84056
smoothSolver:  Solving for Ux, Initial residual = 0.0102736, Final residual = 8.67443e-06, No Iterations 4
smoothSolver:  Solving for Uy, Initial residual = 0.0139898, Final residual = 3.9942e-06, No Iterations 5
DICPCG:  Solving for p, Initial residual = 0.0435744, Final residual = 0.0020017, No Iterations 17
time step continuity errors : sum local = 7.97159e-07, global = 6.9835e-09, cumulative = 6.70563e-08
DICPCG:  Solving for p, Initial residual = 0.0181663, Final residual = 8.36889e-07, No Iterations 87
time step continuity errors : sum local = 3.39884e-10, global = -9.14289e-12, cumulative = 6.70472e-08
ExecutionTime = 0.26 s  ClockTime = 0 s

Time = 0.175

Courant Number mean: 0.0650704 max: 1.85543
smoothSolver:  Solving for Ux, Initial residual = 0.00925898, Final residual = 7.54072e-06, No Iterations 4
smoothSolver:  Solving for Uy, Initial residual = 0.0125984, Final residual = 3.36363e-06, No Iterations 5
DICPCG:  Solving for p, Initial residual = 0.0370593, Final residual = 0.00177161, No Iterations 17
time step continuity errors : sum local = 7.29793e-07, global = 5.40961e-09, cumulative = 7.24568e-08
DICPCG:  Solving for p, Initial residual = 0.0161101, Final residual = 7.21744e-07, No Iterations 90
time step continuity errors : sum local = 3.02105e-10, global = -1.8243e-12, cumulative = 7.2455e-08
ExecutionTime = 0.28 s  ClockTime = 0 s

Time = 0.1925

Courant Number mean: 0.0653209 max: 1.86779
smoothSolver:  Solving for Ux, Initial residual = 0.00846489, Final residual = 6.62563e-06, No Iterations 4
smoothSolver:  Solving for Uy, Initial residual = 0.0114762, Final residual = 2.86538e-06, No Iterations 5
DICPCG:  Solving for p, Initial residual = 0.032232, Final residual = 0.00160924, No Iterations 17
time step continuity errors : sum local = 6.81863e-07, global = 4.70227e-09, cumulative = 7.71572e-08
DICPCG:  Solving for p, Initial residual = 0.0144907, Final residual = 7.53826e-07, No Iterations 90
time step continuity errors : sum local = 3.23677e-10, global = -1.25403e-12, cumulative = 7.7156e-08
ExecutionTime = 0.29 s  ClockTime = 0 s

Time = 0.21

Courant Number mean: 0.0655605 max: 1.87832
smoothSolver:  Solving for Ux, Initial residual = 0.00782897, Final residual = 5.87707e-06, No Iterations 4
smoothSolver:  Solving for Uy, Initial residual = 0.0105506, Final residual = 9.13669e-06, No Iterations 4
DICPCG:  Solving for p, Initial residual = 0.0285331, Final residual = 0.00123302, No Iterations 18
time step continuity errors : sum local = 5.35069e-07, global = 6.44463e-09, cumulative = 8.36006e-08
DICPCG:  Solving for p, Initial residual = 0.0129984, Final residual = 6.87524e-07, No Iterations 90
time step continuity errors : sum local = 3.01721e-10, global = -9.70386e-13, cumulative = 8.35996e-08
ExecutionTime = 0.31 s  ClockTime = 0 s

Time = 0.2275

Courant Number mean: 0.065787 max: 1.8875
smoothSolver:  Solving for Ux, Initial residual = 0.00730087, Final residual = 5.26182e-06, No Iterations 4
smoothSolver:  Solving for Uy, Initial residual = 0.00977774, Final residual = 7.98876e-06, No Iterations 4
DICPCG:  Solving for p, Initial residual = 0.0255523, Final residual = 0.00114162, No Iterations 18
time step continuity errors : sum local = 5.05904e-07, global = 6.64578e-09, cumulative = 9.02454e-08
DICPCG:  Solving for p, Initial residual = 0.0119194, Final residual = 9.98525e-07, No Iterations 89
time step continuity errors : sum local = 4.47773e-10, global = -1.97116e-12, cumulative = 9.02435e-08
ExecutionTime = 0.33 s  ClockTime = 1 s

Time = 0.245

Courant Number mean: 0.0660035 max: 1.89567
smoothSolver:  Solving for Ux, Initial residual = 0.00685348, Final residual = 4.74821e-06, No Iterations 4
smoothSolver:  Solving for Uy, Initial residual = 0.00911876, Final residual = 7.04794e-06, No Iterations 4
DICPCG:  Solving for p, Initial residual = 0.0230952, Final residual = 0.0010756, No Iterations 18
time step continuity errors : sum local = 4.86698e-07, global = 6.46537e-09, cumulative = 9.67088e-08
DICPCG:  Solving for p, Initial residual = 0.0110297, Final residual = 9.48775e-07, No Iterations 89
time step continuity errors : sum local = 4.33824e-10, global = -1.60171e-12, cumulative = 9.67072e-08
ExecutionTime = 0.38 s  ClockTime = 1 s

Time = 0.2625

Courant Number mean: 0.0662132 max: 1.90295
smoothSolver:  Solving for Ux, Initial residual = 0.0064708, Final residual = 4.31096e-06, No Iterations 4
smoothSolver:  Solving for Uy, Initial residual = 0.00855306, Final residual = 6.26276e-06, No Iterations 4
DICPCG:  Solving for p, Initial residual = 0.021063, Final residual = 0.00101224, No Iterations 18
time step continuity errors : sum local = 4.66533e-07, global = 6.65047e-09, cumulative = 1.03358e-07
DICPCG:  Solving for p, Initial residual = 0.0102802, Final residual = 9.02191e-07, No Iterations 89
time step continuity errors : sum local = 4.19732e-10, global = -1.46017e-12, cumulative = 1.03356e-07
ExecutionTime = 0.39 s  ClockTime = 1 s

Time = 0.28

Courant Number mean: 0.0664169 max: 1.9095
smoothSolver:  Solving for Ux, Initial residual = 0.00613707, Final residual = 3.9315e-06, No Iterations 4
smoothSolver:  Solving for Uy, Initial residual = 0.00805954, Final residual = 5.60202e-06, No Iterations 4
DICPCG:  Solving for p, Initial residual = 0.0194182, Final residual = 0.000965144, No Iterations 18
time step continuity errors : sum local = 4.52227e-07, global = 6.65767e-09, cumulative = 1.10014e-07
DICPCG:  Solving for p, Initial residual = 0.0096194, Final residual = 8.46748e-07, No Iterations 89
time step continuity errors : sum local = 4.0014e-10, global = -1.28899e-12, cumulative = 1.10013e-07
ExecutionTime = 0.41 s  ClockTime = 1 s

Time = 0.2975

Courant Number mean: 0.0666168 max: 1.91544
smoothSolver:  Solving for Ux, Initial residual = 0.0058416, Final residual = 3.60047e-06, No Iterations 4
smoothSolver:  Solving for Uy, Initial residual = 0.00762346, Final residual = 5.04216e-06, No Iterations 4
DICPCG:  Solving for p, Initial residual = 0.0180541, Final residual = 0.000695832, No Iterations 19
time step continuity errors : sum local = 3.30966e-07, global = 8.63697e-09, cumulative = 1.1865e-07
DICPCG:  Solving for p, Initial residual = 0.00889213, Final residual = 8.5387e-07, No Iterations 81
time step continuity errors : sum local = 4.09303e-10, global = -1.04589e-12, cumulative = 1.18649e-07
ExecutionTime = 0.42 s  ClockTime = 1 s

Time = 0.315

Courant Number mean: 0.0668144 max: 1.92086
smoothSolver:  Solving for Ux, Initial residual = 0.00557797, Final residual = 3.31079e-06, No Iterations 4
smoothSolver:  Solving for Uy, Initial residual = 0.00723632, Final residual = 4.56271e-06, No Iterations 4
DICPCG:  Solving for p, Initial residual = 0.0168789, Final residual = 0.000656359, No Iterations 19
time step continuity errors : sum local = 3.16575e-07, global = 8.55193e-09, cumulative = 1.272e-07
DICPCG:  Solving for p, Initial residual = 0.00836922, Final residual = 9.73265e-07, No Iterations 80
time step continuity errors : sum local = 4.72825e-10, global = 5.39931e-12, cumulative = 1.27206e-07
ExecutionTime = 0.44 s  ClockTime = 1 s

Time = 0.3325

Courant Number mean: 0.0670115 max: 1.92583
smoothSolver:  Solving for Ux, Initial residual = 0.00534209, Final residual = 3.05592e-06, No Iterations 4
smoothSolver:  Solving for Uy, Initial residual = 0.00689283, Final residual = 4.14863e-06, No Iterations 4
DICPCG:  Solving for p, Initial residual = 0.015875, Final residual = 0.000627795, No Iterations 19
time step continuity errors : sum local = 3.06757e-07, global = 8.68662e-09, cumulative = 1.35892e-07
DICPCG:  Solving for p, Initial residual = 0.00790279, Final residual = 8.75868e-07, No Iterations 80
time step continuity errors : sum local = 4.30925e-10, global = 6.18037e-12, cumulative = 1.35899e-07
ExecutionTime = 0.46 s  ClockTime = 1 s

Time = 0.35

Courant Number mean: 0.0672092 max: 1.93042
smoothSolver:  Solving for Ux, Initial residual = 0.00512678, Final residual = 2.82949e-06, No Iterations 4
smoothSolver:  Solving for Uy, Initial residual = 0.00658485, Final residual = 3.78958e-06, No Iterations 4
DICPCG:  Solving for p, Initial residual = 0.0149703, Final residual = 0.000596503, No Iterations 19
time step continuity errors : sum local = 2.95045e-07, global = 8.78555e-09, cumulative = 1.44684e-07
DICPCG:  Solving for p, Initial residual = 0.00748204, Final residual = 9.71958e-07, No Iterations 79
time step continuity errors : sum local = 4.83903e-10, global = 1.07506e-11, cumulative = 1.44695e-07
ExecutionTime = 0.47 s  ClockTime = 1 s

Time = 0.3675

Courant Number mean: 0.0674037 max: 1.93467
smoothSolver:  Solving for Ux, Initial residual = 0.00493, Final residual = 2.62801e-06, No Iterations 4
smoothSolver:  Solving for Uy, Initial residual = 0.00630779, Final residual = 3.47725e-06, No Iterations 4
DICPCG:  Solving for p, Initial residual = 0.0141574, Final residual = 0.000576472, No Iterations 19
time step continuity errors : sum local = 2.8841e-07, global = 8.84897e-09, cumulative = 1.53544e-07
DICPCG:  Solving for p, Initial residual = 0.00710847, Final residual = 9.84367e-07, No Iterations 78
time step continuity errors : sum local = 4.95466e-10, global = 1.36309e-11, cumulative = 1.53558e-07
ExecutionTime = 0.49 s  ClockTime = 1 s

Time = 0.385

Courant Number mean: 0.0675942 max: 1.93861
smoothSolver:  Solving for Ux, Initial residual = 0.00474891, Final residual = 2.4474e-06, No Iterations 4
smoothSolver:  Solving for Uy, Initial residual = 0.00605867, Final residual = 3.20375e-06, No Iterations 4
DICPCG:  Solving for p, Initial residual = 0.0134378, Final residual = 0.000553061, No Iterations 19
time step continuity errors : sum local = 2.7964e-07, global = 8.90577e-09, cumulative = 1.62463e-07
DICPCG:  Solving for p, Initial residual = 0.00676236, Final residual = 9.34361e-07, No Iterations 78
time step continuity errors : sum local = 4.75101e-10, global = 1.37603e-11, cumulative = 1.62477e-07
ExecutionTime = 0.5 s  ClockTime = 1 s

Time = 0.4025

Courant Number mean: 0.0677812 max: 1.94229
smoothSolver:  Solving for Ux, Initial residual = 0.00458349, Final residual = 2.28496e-06, No Iterations 4
smoothSolver:  Solving for Uy, Initial residual = 0.00583388, Final residual = 2.96242e-06, No Iterations 4
DICPCG:  Solving for p, Initial residual = 0.0127833, Final residual = 0.000536835, No Iterations 19
time step continuity errors : sum local = 2.74122e-07, global = 8.94113e-09, cumulative = 1.71418e-07
DICPCG:  Solving for p, Initial residual = 0.00645123, Final residual = 9.02023e-07, No Iterations 78
time step continuity errors : sum local = 4.63025e-10, global = 1.3437e-11, cumulative = 1.71432e-07
ExecutionTime = 0.52 s  ClockTime = 1 s

Time = 0.42

Courant Number mean: 0.0679646 max: 1.94573
smoothSolver:  Solving for Ux, Initial residual = 0.00443176, Final residual = 9.63456e-06, No Iterations 3
smoothSolver:  Solving for Uy, Initial residual = 0.00563048, Final residual = 2.74914e-06, No Iterations 4
DICPCG:  Solving for p, Initial residual = 0.0121372, Final residual = 0.000511709, No Iterations 19
time step continuity errors : sum local = 2.63702e-07, global = 9.0172e-09, cumulative = 1.80449e-07
DICPCG:  Solving for p, Initial residual = 0.00612578, Final residual = 9.53941e-07, No Iterations 77
time step continuity errors : sum local = 4.9403e-10, global = 9.19733e-12, cumulative = 1.80458e-07
ExecutionTime = 0.54 s  ClockTime = 1 s

Time = 0.4375

Courant Number mean: 0.0681459 max: 1.94895
smoothSolver:  Solving for Ux, Initial residual = 0.00429203, Final residual = 9.08516e-06, No Iterations 3
smoothSolver:  Solving for Uy, Initial residual = 0.00544498, Final residual = 2.55996e-06, No Iterations 4
DICPCG:  Solving for p, Initial residual = 0.0115906, Final residual = 0.000500831, No Iterations 19
time step continuity errors : sum local = 2.60378e-07, global = 8.9397e-09, cumulative = 1.89398e-07
DICPCG:  Solving for p, Initial residual = 0.00586503, Final residual = 9.28822e-07, No Iterations 77
time step continuity errors : sum local = 4.85162e-10, global = 1.0383e-11, cumulative = 1.89408e-07
ExecutionTime = 0.56 s  ClockTime = 1 s

Time = 0.455

Courant Number mean: 0.0683256 max: 1.95199
smoothSolver:  Solving for Ux, Initial residual = 0.00416421, Final residual = 8.58937e-06, No Iterations 3
smoothSolver:  Solving for Uy, Initial residual = 0.00527486, Final residual = 2.39575e-06, No Iterations 4
DICPCG:  Solving for p, Initial residual = 0.0110791, Final residual = 0.000487254, No Iterations 19
time step continuity errors : sum local = 2.55427e-07, global = 9.00589e-09, cumulative = 1.98414e-07
DICPCG:  Solving for p, Initial residual = 0.0056202, Final residual = 8.80449e-07, No Iterations 77
time step continuity errors : sum local = 4.63657e-10, global = 1.08164e-11, cumulative = 1.98425e-07
ExecutionTime = 0.57 s  ClockTime = 1 s

Time = 0.4725

Courant Number mean: 0.0685039 max: 1.95485
smoothSolver:  Solving for Ux, Initial residual = 0.00404602, Final residual = 8.13477e-06, No Iterations 3
smoothSolver:  Solving for Uy, Initial residual = 0.00511875, Final residual = 2.2479e-06, No Iterations 4
DICPCG:  Solving for p, Initial residual = 0.0106128, Final residual = 0.000475835, No Iterations 19
time step continuity errors : sum local = 2.51422e-07, global = 8.97623e-09, cumulative = 2.07401e-07
DICPCG:  Solving for p, Initial residual = 0.00539766, Final residual = 8.68866e-07, No Iterations 77
time step continuity errors : sum local = 4.61075e-10, global = 1.09053e-11, cumulative = 2.07412e-07
ExecutionTime = 0.58 s  ClockTime = 1 s

Time = 0.49

Courant Number mean: 0.0686812 max: 1.95756
smoothSolver:  Solving for Ux, Initial residual = 0.0039355, Final residual = 7.71609e-06, No Iterations 3
smoothSolver:  Solving for Uy, Initial residual = 0.0049747, Final residual = 9.50946e-06, No Iterations 3
DICPCG:  Solving for p, Initial residual = 0.0101653, Final residual = 0.00046956, No Iterations 19
time step continuity errors : sum local = 2.49966e-07, global = 9.01182e-09, cumulative = 2.16424e-07
DICPCG:  Solving for p, Initial residual = 0.00518015, Final residual = 8.95122e-07, No Iterations 80
time step continuity errors : sum local = 4.78446e-10, global = -2.6066e-12, cumulative = 2.16421e-07
ExecutionTime = 0.6 s  ClockTime = 1 s

Time = 0.5075

Courant Number mean: 0.0688577 max: 1.96013
smoothSolver:  Solving for Ux, Initial residual = 0.00383162, Final residual = 7.32778e-06, No Iterations 3
smoothSolver:  Solving for Uy, Initial residual = 0.00484141, Final residual = 8.99753e-06, No Iterations 3
DICPCG:  Solving for p, Initial residual = 0.0097787, Final residual = 0.000461041, No Iterations 19
time step continuity errors : sum local = 2.47162e-07, global = 8.88752e-09, cumulative = 2.25309e-07
DICPCG:  Solving for p, Initial residual = 0.00499045, Final residual = 9.45038e-07, No Iterations 80
time step continuity errors : sum local = 5.08591e-10, global = -4.94662e-12, cumulative = 2.25304e-07
ExecutionTime = 0.64 s  ClockTime = 1 s

Time = 0.525

Courant Number mean: 0.0690334 max: 1.96257
smoothSolver:  Solving for Ux, Initial residual = 0.00373379, Final residual = 6.9676e-06, No Iterations 3
smoothSolver:  Solving for Uy, Initial residual = 0.00471638, Final residual = 8.52754e-06, No Iterations 3
DICPCG:  Solving for p, Initial residual = 0.00942596, Final residual = 0.000456349, No Iterations 19
time step continuity errors : sum local = 2.4629e-07, global = 8.9667e-09, cumulative = 2.3427e-07
DICPCG:  Solving for p, Initial residual = 0.00481443, Final residual = 9.19112e-07, No Iterations 80
time step continuity errors : sum local = 4.97872e-10, global = -5.02564e-12, cumulative = 2.34265e-07
ExecutionTime = 0.66 s  ClockTime = 1 s

Time = 0.5425

Courant Number mean: 0.0692111 max: 1.9649
smoothSolver:  Solving for Ux, Initial residual = 0.00364114, Final residual = 6.63386e-06, No Iterations 3
smoothSolver:  Solving for Uy, Initial residual = 0.00459956, Final residual = 8.09665e-06, No Iterations 3
DICPCG:  Solving for p, Initial residual = 0.00910074, Final residual = 0.000449097, No Iterations 19
time step continuity errors : sum local = 2.43935e-07, global = 8.82831e-09, cumulative = 2.43094e-07
DICPCG:  Solving for p, Initial residual = 0.00464657, Final residual = 9.01677e-07, No Iterations 80
time step continuity errors : sum local = 4.91496e-10, global = -5.27401e-12, cumulative = 2.43088e-07
ExecutionTime = 0.69 s  ClockTime = 1 s

Time = 0.56

Courant Number mean: 0.069387 max: 1.96712
smoothSolver:  Solving for Ux, Initial residual = 0.00355436, Final residual = 6.32281e-06, No Iterations 3
smoothSolver:  Solving for Uy, Initial residual = 0.00449029, Final residual = 7.70029e-06, No Iterations 3
DICPCG:  Solving for p, Initial residual = 0.00879629, Final residual = 0.000361008, No Iterations 20
time step continuity errors : sum local = 1.9729e-07, global = 9.90602e-09, cumulative = 2.52995e-07
DICPCG:  Solving for p, Initial residual = 0.00444663, Final residual = 9.81387e-07, No Iterations 82
time step continuity errors : sum local = 5.38159e-10, global = -2.37768e-11, cumulative = 2.52971e-07
ExecutionTime = 0.7 s  ClockTime = 1 s

Time = 0.5775

Courant Number mean: 0.0695602 max: 1.96925
smoothSolver:  Solving for Ux, Initial residual = 0.00347228, Final residual = 6.03315e-06, No Iterations 3
smoothSolver:  Solving for Uy, Initial residual = 0.00438778, Final residual = 7.33487e-06, No Iterations 3
DICPCG:  Solving for p, Initial residual = 0.00850052, Final residual = 0.000350159, No Iterations 20
time step continuity errors : sum local = 1.92498e-07, global = 9.59475e-09, cumulative = 2.62565e-07
DICPCG:  Solving for p, Initial residual = 0.00429518, Final residual = 9.55366e-07, No Iterations 82
time step continuity errors : sum local = 5.26928e-10, global = -2.35923e-11, cumulative = 2.62542e-07
ExecutionTime = 0.72 s  ClockTime = 1 s

Time = 0.595

Courant Number mean: 0.0697324 max: 1.97129
smoothSolver:  Solving for Ux, Initial residual = 0.0033947, Final residual = 5.76175e-06, No Iterations 3
smoothSolver:  Solving for Uy, Initial residual = 0.00429262, Final residual = 6.99694e-06, No Iterations 3
DICPCG:  Solving for p, Initial residual = 0.00823113, Final residual = 0.000341333, No Iterations 20
time step continuity errors : sum local = 1.88714e-07, global = 9.63492e-09, cumulative = 2.72177e-07
DICPCG:  Solving for p, Initial residual = 0.00415613, Final residual = 9.44475e-07, No Iterations 82
time step continuity errors : sum local = 5.23838e-10, global = -2.37303e-11, cumulative = 2.72153e-07
ExecutionTime = 0.73 s  ClockTime = 1 s

Time = 0.6125

Courant Number mean: 0.0699042 max: 1.97326
smoothSolver:  Solving for Ux, Initial residual = 0.00332242, Final residual = 5.50805e-06, No Iterations 3
smoothSolver:  Solving for Uy, Initial residual = 0.00420409, Final residual = 6.68371e-06, No Iterations 3
DICPCG:  Solving for p, Initial residual = 0.00798071, Final residual = 0.000334194, No Iterations 20
time step continuity errors : sum local = 1.85783e-07, global = 9.60417e-09, cumulative = 2.81757e-07
DICPCG:  Solving for p, Initial residual = 0.00402676, Final residual = 9.42578e-07, No Iterations 82
time step continuity errors : sum local = 5.25593e-10, global = -2.3901e-11, cumulative = 2.81733e-07
ExecutionTime = 0.75 s  ClockTime = 1 s

Time = 0.63

Courant Number mean: 0.0700732 max: 1.97515
smoothSolver:  Solving for Ux, Initial residual = 0.00325606, Final residual = 5.27026e-06, No Iterations 3
smoothSolver:  Solving for Uy, Initial residual = 0.00412169, Final residual = 6.39313e-06, No Iterations 3
DICPCG:  Solving for p, Initial residual = 0.00774656, Final residual = 0.000328141, No Iterations 20
time step continuity errors : sum local = 1.83379e-07, global = 9.56502e-09, cumulative = 2.91298e-07
DICPCG:  Solving for p, Initial residual = 0.0039053, Final residual = 9.19897e-07, No Iterations 82
time step continuity errors : sum local = 5.1559e-10, global = -2.38256e-11, cumulative = 2.91275e-07
ExecutionTime = 0.76 s  ClockTime = 1 s

Time = 0.6475

Courant Number mean: 0.0702415 max: 1.97697
smoothSolver:  Solving for Ux, Initial residual = 0.00319368, Final residual = 5.04701e-06, No Iterations 3
smoothSolver:  Solving for Uy, Initial residual = 0.00404496, Final residual = 6.12324e-06, No Iterations 3
DICPCG:  Solving for p, Initial residual = 0.0075245, Final residual = 0.000322649, No Iterations 20
time step continuity errors : sum local = 1.81226e-07, global = 9.51824e-09, cumulative = 3.00793e-07
DICPCG:  Solving for p, Initial residual = 0.0037899, Final residual = 9.09499e-07, No Iterations 82
time step continuity errors : sum local = 5.12306e-10, global = -2.38515e-11, cumulative = 3.00769e-07
ExecutionTime = 0.78 s  ClockTime = 1 s

Time = 0.665

Courant Number mean: 0.0704092 max: 1.97873
smoothSolver:  Solving for Ux, Initial residual = 0.00313402, Final residual = 4.83729e-06, No Iterations 3
smoothSolver:  Solving for Uy, Initial residual = 0.00397356, Final residual = 5.87209e-06, No Iterations 3
DICPCG:  Solving for p, Initial residual = 0.00731586, Final residual = 0.000317328, No Iterations 20
time step continuity errors : sum local = 1.79114e-07, global = 9.46772e-09, cumulative = 3.10237e-07
DICPCG:  Solving for p, Initial residual = 0.00368062, Final residual = 9.98336e-07, No Iterations 81
time step continuity errors : sum local = 5.65053e-10, global = -2.13797e-11, cumulative = 3.10215e-07
ExecutionTime = 0.79 s  ClockTime = 1 s

Time = 0.6825

Courant Number mean: 0.0705766 max: 1.98044
smoothSolver:  Solving for Ux, Initial residual = 0.00307689, Final residual = 4.63991e-06, No Iterations 3
smoothSolver:  Solving for Uy, Initial residual = 0.00390599, Final residual = 5.63781e-06, No Iterations 3
DICPCG:  Solving for p, Initial residual = 0.0071181, Final residual = 0.00031213, No Iterations 20
time step continuity errors : sum local = 1.77019e-07, global = 9.41307e-09, cumulative = 3.19628e-07
DICPCG:  Solving for p, Initial residual = 0.00357656, Final residual = 9.55433e-07, No Iterations 81
time step continuity errors : sum local = 5.43312e-10, global = -2.14808e-11, cumulative = 3.19607e-07
ExecutionTime = 0.8 s  ClockTime = 1 s

Time = 0.7

Courant Number mean: 0.0707424 max: 1.98209
smoothSolver:  Solving for Ux, Initial residual = 0.00302219, Final residual = 4.45388e-06, No Iterations 3
smoothSolver:  Solving for Uy, Initial residual = 0.00384397, Final residual = 5.41909e-06, No Iterations 3
DICPCG:  Solving for p, Initial residual = 0.00692714, Final residual = 0.000307185, No Iterations 20
time step continuity errors : sum local = 1.75027e-07, global = 9.36006e-09, cumulative = 3.28967e-07
DICPCG:  Solving for p, Initial residual = 0.00347734, Final residual = 9.30975e-07, No Iterations 81
time step continuity errors : sum local = 5.3183e-10, global = -2.12369e-11, cumulative = 3.28946e-07
ExecutionTime = 0.83 s  ClockTime = 1 s

Time = 0.7175

Courant Number mean: 0.0709089 max: 1.98369
smoothSolver:  Solving for Ux, Initial residual = 0.00297002, Final residual = 4.27847e-06, No Iterations 3
smoothSolver:  Solving for Uy, Initial residual = 0.00378483, Final residual = 5.21481e-06, No Iterations 3
DICPCG:  Solving for p, Initial residual = 0.00674282, Final residual = 0.000302615, No Iterations 20
time step continuity errors : sum local = 1.73203e-07, global = 9.30339e-09, cumulative = 3.38249e-07
DICPCG:  Solving for p, Initial residual = 0.00338295, Final residual = 9.12078e-07, No Iterations 81
time step continuity errors : sum local = 5.23383e-10, global = -2.08378e-11, cumulative = 3.38228e-07
ExecutionTime = 0.84 s  ClockTime = 1 s

Time = 0.735

Courant Number mean: 0.0710735 max: 1.98525
smoothSolver:  Solving for Ux, Initial residual = 0.00292012, Final residual = 4.11288e-06, No Iterations 3
smoothSolver:  Solving for Uy, Initial residual = 0.00372865, Final residual = 5.02437e-06, No Iterations 3
DICPCG:  Solving for p, Initial residual = 0.00656459, Final residual = 0.000298298, No Iterations 20
time step continuity errors : sum local = 1.71501e-07, global = 9.24624e-09, cumulative = 3.47474e-07
DICPCG:  Solving for p, Initial residual = 0.00329385, Final residual = 8.86868e-07, No Iterations 81
time step continuity errors : sum local = 5.11195e-10, global = -2.04711e-11, cumulative = 3.47454e-07
ExecutionTime = 0.85 s  ClockTime = 1 s

Time = 0.7525

Courant Number mean: 0.0712395 max: 1.98677
smoothSolver:  Solving for Ux, Initial residual = 0.00287215, Final residual = 3.95637e-06, No Iterations 3
smoothSolver:  Solving for Uy, Initial residual = 0.00367583, Final residual = 4.84635e-06, No Iterations 3
DICPCG:  Solving for p, Initial residual = 0.00639221, Final residual = 0.000293964, No Iterations 20
time step continuity errors : sum local = 1.69758e-07, global = 9.18873e-09, cumulative = 3.56643e-07
DICPCG:  Solving for p, Initial residual = 0.00320826, Final residual = 8.61558e-07, No Iterations 81
time step continuity errors : sum local = 4.98783e-10, global = -1.99604e-11, cumulative = 3.56623e-07
ExecutionTime = 0.9 s  ClockTime = 1 s

Time = 0.77

Courant Number mean: 0.0714058 max: 1.98825
smoothSolver:  Solving for Ux, Initial residual = 0.00282622, Final residual = 3.80839e-06, No Iterations 3
smoothSolver:  Solving for Uy, Initial residual = 0.0036253, Final residual = 4.67955e-06, No Iterations 3
DICPCG:  Solving for p, Initial residual = 0.00622717, Final residual = 0.000289815, No Iterations 20
time step continuity errors : sum local = 1.68085e-07, global = 9.13098e-09, cumulative = 3.65754e-07
DICPCG:  Solving for p, Initial residual = 0.00312638, Final residual = 9.7895e-07, No Iterations 80
time step continuity errors : sum local = 5.69152e-10, global = -1.44513e-11, cumulative = 3.65739e-07
ExecutionTime = 0.92 s  ClockTime = 1 s

Time = 0.7875

Courant Number mean: 0.0715707 max: 1.98969
smoothSolver:  Solving for Ux, Initial residual = 0.00278269, Final residual = 3.66823e-06, No Iterations 3
smoothSolver:  Solving for Uy, Initial residual = 0.00357733, Final residual = 4.5226e-06, No Iterations 3
DICPCG:  Solving for p, Initial residual = 0.00606813, Final residual = 0.000285761, No Iterations 20
time step continuity errors : sum local = 1.66432e-07, global = 9.07279e-09, cumulative = 3.74812e-07
DICPCG:  Solving for p, Initial residual = 0.0030479, Final residual = 9.46309e-07, No Iterations 80
time step continuity errors : sum local = 5.52454e-10, global = -1.3734e-11, cumulative = 3.74798e-07
ExecutionTime = 0.94 s  ClockTime = 1 s

Time = 0.805

Courant Number mean: 0.0717361 max: 1.9911
smoothSolver:  Solving for Ux, Initial residual = 0.00274174, Final residual = 3.53554e-06, No Iterations 3
smoothSolver:  Solving for Uy, Initial residual = 0.00353127, Final residual = 4.37468e-06, No Iterations 3
DICPCG:  Solving for p, Initial residual = 0.00591524, Final residual = 0.000281916, No Iterations 20
time step continuity errors : sum local = 1.64873e-07, global = 9.01507e-09, cumulative = 3.83813e-07
DICPCG:  Solving for p, Initial residual = 0.00297188, Final residual = 9.31884e-07, No Iterations 80
time step continuity errors : sum local = 5.46283e-10, global = -1.29758e-11, cumulative = 3.838e-07
ExecutionTime = 0.95 s  ClockTime = 1 s

Time = 0.8225

Courant Number mean: 0.0718991 max: 1.99248
smoothSolver:  Solving for Ux, Initial residual = 0.00270408, Final residual = 3.4098e-06, No Iterations 3
smoothSolver:  Solving for Uy, Initial residual = 0.00348751, Final residual = 4.2351e-06, No Iterations 3
DICPCG:  Solving for p, Initial residual = 0.00576819, Final residual = 0.000278117, No Iterations 20
time step continuity errors : sum local = 1.63317e-07, global = 8.95761e-09, cumulative = 3.92758e-07
DICPCG:  Solving for p, Initial residual = 0.0028995, Final residual = 9.00656e-07, No Iterations 80
time step continuity errors : sum local = 5.3012e-10, global = -1.22631e-11, cumulative = 3.92746e-07
ExecutionTime = 0.97 s  ClockTime = 1 s

Time = 0.84

Courant Number mean: 0.0720617 max: 1.99387
smoothSolver:  Solving for Ux, Initial residual = 0.0026681, Final residual = 3.29049e-06, No Iterations 3
smoothSolver:  Solving for Uy, Initial residual = 0.00344619, Final residual = 4.10327e-06, No Iterations 3
DICPCG:  Solving for p, Initial residual = 0.00562586, Final residual = 0.000274404, No Iterations 20
time step continuity errors : sum local = 1.61782e-07, global = 8.90043e-09, cumulative = 4.01646e-07
DICPCG:  Solving for p, Initial residual = 0.00283007, Final residual = 8.70867e-07, No Iterations 80
time step continuity errors : sum local = 5.14603e-10, global = -1.16602e-11, cumulative = 4.01635e-07
ExecutionTime = 0.98 s  ClockTime = 1 s

Time = 0.8575

Courant Number mean: 0.0722229 max: 1.99524
smoothSolver:  Solving for Ux, Initial residual = 0.00263388, Final residual = 3.17707e-06, No Iterations 3
smoothSolver:  Solving for Uy, Initial residual = 0.00340698, Final residual = 3.97836e-06, No Iterations 3
DICPCG:  Solving for p, Initial residual = 0.00548789, Final residual = 0.000270761, No Iterations 20
time step continuity errors : sum local = 1.60255e-07, global = 8.84388e-09, cumulative = 4.10478e-07
DICPCG:  Solving for p, Initial residual = 0.00276313, Final residual = 8.37543e-07, No Iterations 80
time step continuity errors : sum local = 4.96806e-10, global = -1.09788e-11, cumulative = 4.10467e-07
ExecutionTime = 1 s  ClockTime = 1 s

Time = 0.875

Courant Number mean: 0.072384 max: 1.99658
smoothSolver:  Solving for Ux, Initial residual = 0.00260145, Final residual = 3.0691e-06, No Iterations 3
smoothSolver:  Solving for Uy, Initial residual = 0.00336924, Final residual = 3.85976e-06, No Iterations 3
DICPCG:  Solving for p, Initial residual = 0.00535427, Final residual = 0.000267209, No Iterations 20
time step continuity errors : sum local = 1.58755e-07, global = 8.78799e-09, cumulative = 4.19255e-07
DICPCG:  Solving for p, Initial residual = 0.00269892, Final residual = 9.84709e-07, No Iterations 79
time step continuity errors : sum local = 5.86307e-10, global = -5.56694e-12, cumulative = 4.1925e-07
ExecutionTime = 1.01 s  ClockTime = 1 s

Time = 0.8925

Courant Number mean: 0.0725446 max: 1.99789
smoothSolver:  Solving for Ux, Initial residual = 0.00257019, Final residual = 2.96633e-06, No Iterations 3
smoothSolver:  Solving for Uy, Initial residual = 0.00333301, Final residual = 3.74726e-06, No Iterations 3
DICPCG:  Solving for p, Initial residual = 0.0052265, Final residual = 0.000234109, No Iterations 21
time step continuity errors : sum local = 1.39615e-07, global = 9.55797e-09, cumulative = 4.28808e-07
DICPCG:  Solving for p, Initial residual = 0.00263206, Final residual = 9.73916e-07, No Iterations 81
time step continuity errors : sum local = 5.82073e-10, global = -2.52464e-11, cumulative = 4.28783e-07
ExecutionTime = 1.03 s  ClockTime = 1 s

Time = 0.91

Courant Number mean: 0.072704 max: 1.99918
smoothSolver:  Solving for Ux, Initial residual = 0.00253989, Final residual = 2.86882e-06, No Iterations 3
smoothSolver:  Solving for Uy, Initial residual = 0.00329845, Final residual = 3.64032e-06, No Iterations 3
DICPCG:  Solving for p, Initial residual = 0.00510238, Final residual = 0.00023306, No Iterations 21
time step continuity errors : sum local = 1.39509e-07, global = 9.47303e-09, cumulative = 4.38256e-07
DICPCG:  Solving for p, Initial residual = 0.00257154, Final residual = 9.61887e-07, No Iterations 81
time step continuity errors : sum local = 5.76998e-10, global = -2.51451e-11, cumulative = 4.38231e-07
ExecutionTime = 1.04 s  ClockTime = 1 s

Time = 0.9275

Courant Number mean: 0.0728636 max: 2.00045
smoothSolver:  Solving for Ux, Initial residual = 0.00251052, Final residual = 2.77572e-06, No Iterations 3
smoothSolver:  Solving for Uy, Initial residual = 0.00326575, Final residual = 3.539e-06, No Iterations 3
DICPCG:  Solving for p, Initial residual = 0.00498957, Final residual = 0.000228879, No Iterations 21
time step continuity errors : sum local = 1.37503e-07, global = 9.44571e-09, cumulative = 4.47676e-07
DICPCG:  Solving for p, Initial residual = 0.00251428, Final residual = 9.43352e-07, No Iterations 81
time step continuity errors : sum local = 5.67897e-10, global = -2.45469e-11, cumulative = 4.47652e-07
ExecutionTime = 1.06 s  ClockTime = 1 s

Time = 0.945

Courant Number mean: 0.0730227 max: 2.0017
smoothSolver:  Solving for Ux, Initial residual = 0.00248225, Final residual = 2.68704e-06, No Iterations 3
smoothSolver:  Solving for Uy, Initial residual = 0.00323519, Final residual = 3.44246e-06, No Iterations 3
DICPCG:  Solving for p, Initial residual = 0.00488293, Final residual = 0.000229449, No Iterations 21
time step continuity errors : sum local = 1.38329e-07, global = 9.39537e-09, cumulative = 4.57047e-07
DICPCG:  Solving for p, Initial residual = 0.00246268, Final residual = 9.19322e-07, No Iterations 81
time step continuity errors : sum local = 5.55347e-10, global = -2.41463e-11, cumulative = 4.57023e-07
ExecutionTime = 1.08 s  ClockTime = 1 s

Time = 0.9625

Courant Number mean: 0.0731819 max: 2.00292
smoothSolver:  Solving for Ux, Initial residual = 0.0024549, Final residual = 2.60243e-06, No Iterations 3
smoothSolver:  Solving for Uy, Initial residual = 0.00320591, Final residual = 3.35042e-06, No Iterations 3
DICPCG:  Solving for p, Initial residual = 0.0047814, Final residual = 0.000226025, No Iterations 21
time step continuity errors : sum local = 1.36733e-07, global = 9.36025e-09, cumulative = 4.66383e-07
DICPCG:  Solving for p, Initial residual = 0.0024091, Final residual = 9.13366e-07, No Iterations 81
time step continuity errors : sum local = 5.53618e-10, global = -2.35059e-11, cumulative = 4.6636e-07
ExecutionTime = 1.09 s  ClockTime = 1 s

Time = 0.98

Courant Number mean: 0.0733398 max: 2.00413
smoothSolver:  Solving for Ux, Initial residual = 0.0024285, Final residual = 2.52165e-06, No Iterations 3
smoothSolver:  Solving for Uy, Initial residual = 0.00317895, Final residual = 3.26236e-06, No Iterations 3
DICPCG:  Solving for p, Initial residual = 0.0046842, Final residual = 0.000226878, No Iterations 21
time step continuity errors : sum local = 1.37708e-07, global = 9.30937e-09, cumulative = 4.75669e-07
DICPCG:  Solving for p, Initial residual = 0.00236077, Final residual = 8.94428e-07, No Iterations 81
time step continuity errors : sum local = 5.43927e-10, global = -2.30867e-11, cumulative = 4.75646e-07
ExecutionTime = 1.11 s  ClockTime = 1 s

Time = 0.9975

Courant Number mean: 0.0734966 max: 2.00533
smoothSolver:  Solving for Ux, Initial residual = 0.00240309, Final residual = 2.44491e-06, No Iterations 3
smoothSolver:  Solving for Uy, Initial residual = 0.00315289, Final residual = 3.17804e-06, No Iterations 3
DICPCG:  Solving for p, Initial residual = 0.00459048, Final residual = 0.00022361, No Iterations 21
time step continuity errors : sum local = 1.36167e-07, global = 9.2801e-09, cumulative = 4.84926e-07
DICPCG:  Solving for p, Initial residual = 0.00231067, Final residual = 8.75975e-07, No Iterations 81
time step continuity errors : sum local = 5.3442e-10, global = -2.26407e-11, cumulative = 4.84903e-07
ExecutionTime = 1.15 s  ClockTime = 1 s

Time = 1.015

Courant Number mean: 0.0736527 max: 2.0065
smoothSolver:  Solving for Ux, Initial residual = 0.00237872, Final residual = 2.37153e-06, No Iterations 3
smoothSolver:  Solving for Uy, Initial residual = 0.00312751, Final residual = 3.09728e-06, No Iterations 3
DICPCG:  Solving for p, Initial residual = 0.00449909, Final residual = 0.000224675, No Iterations 21
time step continuity errors : sum local = 1.37252e-07, global = 9.23119e-09, cumulative = 4.94135e-07
DICPCG:  Solving for p, Initial residual = 0.00226594, Final residual = 9.84297e-07, No Iterations 80
time step continuity errors : sum local = 6.02391e-10, global = -1.89629e-11, cumulative = 4.94116e-07
ExecutionTime = 1.17 s  ClockTime = 1 s

Time = 1.0325

Courant Number mean: 0.073808 max: 2.00766
smoothSolver:  Solving for Ux, Initial residual = 0.00235563, Final residual = 2.30121e-06, No Iterations 3
smoothSolver:  Solving for Uy, Initial residual = 0.00310284, Final residual = 3.01981e-06, No Iterations 3
DICPCG:  Solving for p, Initial residual = 0.00441407, Final residual = 0.000215767, No Iterations 22
time step continuity errors : sum local = 1.3222e-07, global = 1.04902e-08, cumulative = 5.04606e-07
DICPCG:  Solving for p, Initial residual = 0.00220829, Final residual = 9.44882e-07, No Iterations 82
time step continuity errors : sum local = 5.80043e-10, global = -2.80458e-11, cumulative = 5.04578e-07
ExecutionTime = 1.2 s  ClockTime = 1 s

Time = 1.05

Courant Number mean: 0.0739619 max: 2.0088
smoothSolver:  Solving for Ux, Initial residual = 0.00233332, Final residual = 2.23443e-06, No Iterations 3
smoothSolver:  Solving for Uy, Initial residual = 0.00307919, Final residual = 2.94541e-06, No Iterations 3
DICPCG:  Solving for p, Initial residual = 0.00433236, Final residual = 0.000216554, No Iterations 22
time step continuity errors : sum local = 1.33105e-07, global = 1.05203e-08, cumulative = 5.15098e-07
DICPCG:  Solving for p, Initial residual = 0.00216383, Final residual = 9.379e-07, No Iterations 82
time step continuity errors : sum local = 5.77486e-10, global = -2.76859e-11, cumulative = 5.1507e-07
ExecutionTime = 1.21 s  ClockTime = 1 s

Time = 1.0675

Courant Number mean: 0.074114 max: 2.00993
smoothSolver:  Solving for Ux, Initial residual = 0.00231174, Final residual = 2.1706e-06, No Iterations 3
smoothSolver:  Solving for Uy, Initial residual = 0.00305619, Final residual = 2.87397e-06, No Iterations 3
DICPCG:  Solving for p, Initial residual = 0.0042537, Final residual = 0.000208853, No Iterations 23
time step continuity errors : sum local = 1.28754e-07, global = 1.19132e-08, cumulative = 5.26984e-07
DICPCG:  Solving for p, Initial residual = 0.00211684, Final residual = 8.65852e-07, No Iterations 83
time step continuity errors : sum local = 5.34694e-10, global = -2.3407e-11, cumulative = 5.2696e-07
ExecutionTime = 1.23 s  ClockTime = 1 s

Time = 1.085

Courant Number mean: 0.0742651 max: 2.01105
smoothSolver:  Solving for Ux, Initial residual = 0.00229091, Final residual = 2.10922e-06, No Iterations 3
smoothSolver:  Solving for Uy, Initial residual = 0.00303423, Final residual = 2.80543e-06, No Iterations 3
DICPCG:  Solving for p, Initial residual = 0.00417972, Final residual = 0.00020562, No Iterations 23
time step continuity errors : sum local = 1.2713e-07, global = 1.2092e-08, cumulative = 5.39052e-07
DICPCG:  Solving for p, Initial residual = 0.00207682, Final residual = 9.83297e-07, No Iterations 82
time step continuity errors : sum local = 6.08965e-10, global = -2.85815e-11, cumulative = 5.39024e-07
ExecutionTime = 1.24 s  ClockTime = 2 s

Time = 1.1025

Courant Number mean: 0.0744151 max: 2.01215
smoothSolver:  Solving for Ux, Initial residual = 0.0022717, Final residual = 2.05033e-06, No Iterations 3
smoothSolver:  Solving for Uy, Initial residual = 0.00301311, Final residual = 2.73961e-06, No Iterations 3
DICPCG:  Solving for p, Initial residual = 0.00410608, Final residual = 0.000204955, No Iterations 23
time step continuity errors : sum local = 1.2708e-07, global = 1.2022e-08, cumulative = 5.51046e-07
DICPCG:  Solving for p, Initial residual = 0.00203833, Final residual = 8.46538e-07, No Iterations 83
time step continuity errors : sum local = 5.25743e-10, global = -2.28808e-11, cumulative = 5.51023e-07
ExecutionTime = 1.26 s  ClockTime = 2 s

Time = 1.12

Courant Number mean: 0.0745639 max: 2.01323
smoothSolver:  Solving for Ux, Initial residual = 0.00225311, Final residual = 1.99386e-06, No Iterations 3
smoothSolver:  Solving for Uy, Initial residual = 0.00299248, Final residual = 2.67591e-06, No Iterations 3
DICPCG:  Solving for p, Initial residual = 0.0040346, Final residual = 0.000167993, No Iterations 24
time step continuity errors : sum local = 1.04453e-07, global = 1.26865e-08, cumulative = 5.63709e-07
DICPCG:  Solving for p, Initial residual = 0.00198374, Final residual = 8.50668e-07, No Iterations 83
time step continuity errors : sum local = 5.29775e-10, global = -2.19891e-11, cumulative = 5.63687e-07
ExecutionTime = 1.27 s  ClockTime = 2 s

Time = 1.1375

Courant Number mean: 0.074713 max: 2.01431
smoothSolver:  Solving for Ux, Initial residual = 0.00223512, Final residual = 1.93938e-06, No Iterations 3
smoothSolver:  Solving for Uy, Initial residual = 0.00297322, Final residual = 2.61402e-06, No Iterations 3
DICPCG:  Solving for p, Initial residual = 0.00396557, Final residual = 0.000170544, No Iterations 24
time step continuity errors : sum local = 1.06333e-07, global = 1.27404e-08, cumulative = 5.76428e-07
DICPCG:  Solving for p, Initial residual = 0.00195069, Final residual = 9.92035e-07, No Iterations 82
time step continuity errors : sum local = 6.19527e-10, global = -2.69838e-11, cumulative = 5.76401e-07
ExecutionTime = 1.29 s  ClockTime = 2 s

Time = 1.155

Courant Number mean: 0.0748609 max: 2.01537
smoothSolver:  Solving for Ux, Initial residual = 0.00221798, Final residual = 1.88707e-06, No Iterations 3
smoothSolver:  Solving for Uy, Initial residual = 0.00295483, Final residual = 2.55433e-06, No Iterations 3
DICPCG:  Solving for p, Initial residual = 0.00389772, Final residual = 0.000170477, No Iterations 24
time step continuity errors : sum local = 1.06586e-07, global = 1.26837e-08, cumulative = 5.89084e-07
DICPCG:  Solving for p, Initial residual = 0.00191631, Final residual = 9.84109e-07, No Iterations 82
time step continuity errors : sum local = 6.16269e-10, global = -2.70381e-11, cumulative = 5.89057e-07
ExecutionTime = 1.3 s  ClockTime = 2 s

Time = 1.1725

Courant Number mean: 0.0750078 max: 2.01642
smoothSolver:  Solving for Ux, Initial residual = 0.00220142, Final residual = 1.83677e-06, No Iterations 3
smoothSolver:  Solving for Uy, Initial residual = 0.00293697, Final residual = 2.49653e-06, No Iterations 3
DICPCG:  Solving for p, Initial residual = 0.00383208, Final residual = 0.000170442, No Iterations 24
time step continuity errors : sum local = 1.06855e-07, global = 1.26456e-08, cumulative = 6.01703e-07
DICPCG:  Solving for p, Initial residual = 0.00188322, Final residual = 9.70892e-07, No Iterations 82
time step continuity errors : sum local = 6.09632e-10, global = -2.69361e-11, cumulative = 6.01676e-07
ExecutionTime = 1.32 s  ClockTime = 2 s

Time = 1.19

Courant Number mean: 0.0751536 max: 2.01746
smoothSolver:  Solving for Ux, Initial residual = 0.00218524, Final residual = 1.78837e-06, No Iterations 3
smoothSolver:  Solving for Uy, Initial residual = 0.00291963, Final residual = 2.44049e-06, No Iterations 3
DICPCG:  Solving for p, Initial residual = 0.0037685, Final residual = 0.000170421, No Iterations 24
time step continuity errors : sum local = 1.07126e-07, global = 1.26095e-08, cumulative = 6.14286e-07
DICPCG:  Solving for p, Initial residual = 0.00185094, Final residual = 9.67525e-07, No Iterations 82
time step continuity errors : sum local = 6.09111e-10, global = -2.68344e-11, cumulative = 6.14259e-07
ExecutionTime = 1.33 s  ClockTime = 2 s

Time = 1.2075

Courant Number mean: 0.0752984 max: 2.01849
smoothSolver:  Solving for Ux, Initial residual = 0.00216938, Final residual = 9.86592e-06, No Iterations 2
smoothSolver:  Solving for Uy, Initial residual = 0.00290274, Final residual = 2.38608e-06, No Iterations 3
DICPCG:  Solving for p, Initial residual = 0.00367616, Final residual = 0.000170441, No Iterations 24
time step continuity errors : sum local = 1.07415e-07, global = 1.29411e-08, cumulative = 6.272e-07
DICPCG:  Solving for p, Initial residual = 0.00182836, Final residual = 9.3709e-07, No Iterations 80
time step continuity errors : sum local = 5.91438e-10, global = -2.56291e-11, cumulative = 6.27174e-07
ExecutionTime = 1.35 s  ClockTime = 2 s

Time = 1.225

Courant Number mean: 0.0754427 max: 2.0195
smoothSolver:  Solving for Ux, Initial residual = 0.00215378, Final residual = 9.63548e-06, No Iterations 2
smoothSolver:  Solving for Uy, Initial residual = 0.00288576, Final residual = 2.33231e-06, No Iterations 3
DICPCG:  Solving for p, Initial residual = 0.00361456, Final residual = 0.000170814, No Iterations 24
time step continuity errors : sum local = 1.07927e-07, global = 1.26964e-08, cumulative = 6.39871e-07
DICPCG:  Solving for p, Initial residual = 0.00179691, Final residual = 9.87093e-07, No Iterations 80
time step continuity errors : sum local = 6.24597e-10, global = -2.6893e-11, cumulative = 6.39844e-07
ExecutionTime = 1.37 s  ClockTime = 2 s

Time = 1.2425

Courant Number mean: 0.0755858 max: 2.0205
smoothSolver:  Solving for Ux, Initial residual = 0.00213905, Final residual = 9.40819e-06, No Iterations 2
smoothSolver:  Solving for Uy, Initial residual = 0.00286968, Final residual = 2.28104e-06, No Iterations 3
DICPCG:  Solving for p, Initial residual = 0.00355653, Final residual = 0.000171059, No Iterations 24
time step continuity errors : sum local = 1.08355e-07, global = 1.27188e-08, cumulative = 6.52562e-07
DICPCG:  Solving for p, Initial residual = 0.00176706, Final residual = 9.81026e-07, No Iterations 80
time step continuity errors : sum local = 6.22316e-10, global = -2.69915e-11, cumulative = 6.52535e-07
ExecutionTime = 1.42 s  ClockTime = 2 s

Time = 1.26

Courant Number mean: 0.0757278 max: 2.0215
smoothSolver:  Solving for Ux, Initial residual = 0.0021248, Final residual = 9.18875e-06, No Iterations 2
smoothSolver:  Solving for Uy, Initial residual = 0.00285424, Final residual = 2.23115e-06, No Iterations 3
DICPCG:  Solving for p, Initial residual = 0.00349992, Final residual = 0.000171374, No Iterations 24
time step continuity errors : sum local = 1.08824e-07, global = 1.26799e-08, cumulative = 6.65215e-07
DICPCG:  Solving for p, Initial residual = 0.00173796, Final residual = 9.80243e-07, No Iterations 80
time step continuity errors : sum local = 6.23351e-10, global = -2.72405e-11, cumulative = 6.65188e-07
ExecutionTime = 1.44 s  ClockTime = 2 s

Time = 1.2775

Courant Number mean: 0.0758706 max: 2.02248
smoothSolver:  Solving for Ux, Initial residual = 0.00211105, Final residual = 8.97784e-06, No Iterations 2
smoothSolver:  Solving for Uy, Initial residual = 0.00283972, Final residual = 2.18276e-06, No Iterations 3
DICPCG:  Solving for p, Initial residual = 0.00344718, Final residual = 0.000171738, No Iterations 24
time step continuity errors : sum local = 1.09323e-07, global = 1.26533e-08, cumulative = 6.77841e-07
DICPCG:  Solving for p, Initial residual = 0.00170998, Final residual = 9.87279e-07, No Iterations 80
time step continuity errors : sum local = 6.29354e-10, global = -2.74266e-11, cumulative = 6.77814e-07
ExecutionTime = 1.45 s  ClockTime = 2 s

Time = 1.295

Courant Number mean: 0.0760152 max: 2.02348
smoothSolver:  Solving for Ux, Initial residual = 0.00209763, Final residual = 8.77411e-06, No Iterations 2
smoothSolver:  Solving for Uy, Initial residual = 0.00282644, Final residual = 2.13595e-06, No Iterations 3
DICPCG:  Solving for p, Initial residual = 0.00339542, Final residual = 0.000162096, No Iterations 25
time step continuity errors : sum local = 1.03436e-07, global = 1.29876e-08, cumulative = 6.90802e-07
DICPCG:  Solving for p, Initial residual = 0.00167976, Final residual = 8.65725e-07, No Iterations 81
time step continuity errors : sum local = 5.53209e-10, global = -2.91927e-11, cumulative = 6.90772e-07
ExecutionTime = 1.47 s  ClockTime = 2 s

Time = 1.3125

Courant Number mean: 0.0761598 max: 2.02448
smoothSolver:  Solving for Ux, Initial residual = 0.00208444, Final residual = 8.5772e-06, No Iterations 2
smoothSolver:  Solving for Uy, Initial residual = 0.0028137, Final residual = 2.09079e-06, No Iterations 3
DICPCG:  Solving for p, Initial residual = 0.00334364, Final residual = 0.000162413, No Iterations 25
time step continuity errors : sum local = 1.03888e-07, global = 1.29571e-08, cumulative = 7.03729e-07
DICPCG:  Solving for p, Initial residual = 0.00165277, Final residual = 8.74327e-07, No Iterations 81
time step continuity errors : sum local = 5.60031e-10, global = -2.9227e-11, cumulative = 7.037e-07
ExecutionTime = 1.48 s  ClockTime = 2 s

Time = 1.33

Courant Number mean: 0.0763044 max: 2.02548
smoothSolver:  Solving for Ux, Initial residual = 0.00207213, Final residual = 8.38678e-06, No Iterations 2
smoothSolver:  Solving for Uy, Initial residual = 0.00280122, Final residual = 2.04717e-06, No Iterations 3
DICPCG:  Solving for p, Initial residual = 0.00329422, Final residual = 0.000163732, No Iterations 25
time step continuity errors : sum local = 1.04978e-07, global = 1.29416e-08, cumulative = 7.16642e-07
DICPCG:  Solving for p, Initial residual = 0.00162785, Final residual = 8.74856e-07, No Iterations 81
time step continuity errors : sum local = 5.61674e-10, global = -2.90798e-11, cumulative = 7.16613e-07
ExecutionTime = 1.5 s  ClockTime = 2 s

Time = 1.3475

Courant Number mean: 0.0764474 max: 2.02647
smoothSolver:  Solving for Ux, Initial residual = 0.00206031, Final residual = 8.20241e-06, No Iterations 2
smoothSolver:  Solving for Uy, Initial residual = 0.00278871, Final residual = 2.00455e-06, No Iterations 3
DICPCG:  Solving for p, Initial residual = 0.00324514, Final residual = 0.000161121, No Iterations 26
time step continuity errors : sum local = 1.03542e-07, global = 1.32858e-08, cumulative = 7.29899e-07
DICPCG:  Solving for p, Initial residual = 0.00159781, Final residual = 9.33465e-07, No Iterations 81
time step continuity errors : sum local = 6.00668e-10, global = -2.93981e-11, cumulative = 7.29869e-07
ExecutionTime = 1.52 s  ClockTime = 2 s

Time = 1.365

Courant Number mean: 0.0765897 max: 2.02745
smoothSolver:  Solving for Ux, Initial residual = 0.00204887, Final residual = 8.02434e-06, No Iterations 2
smoothSolver:  Solving for Uy, Initial residual = 0.00277613, Final residual = 1.96305e-06, No Iterations 3
DICPCG:  Solving for p, Initial residual = 0.00319648, Final residual = 0.000136834, No Iterations 29
time step continuity errors : sum local = 8.81332e-08, global = 1.15007e-08, cumulative = 7.4137e-07
DICPCG:  Solving for p, Initial residual = 0.00156062, Final residual = 9.66644e-07, No Iterations 81
time step continuity errors : sum local = 6.23419e-10, global = -2.90067e-11, cumulative = 7.41341e-07
ExecutionTime = 1.54 s  ClockTime = 2 s

Time = 1.3825

Courant Number mean: 0.0767313 max: 2.02843
smoothSolver:  Solving for Ux, Initial residual = 0.00203757, Final residual = 7.85107e-06, No Iterations 2
smoothSolver:  Solving for Uy, Initial residual = 0.00276356, Final residual = 1.92242e-06, No Iterations 3
DICPCG:  Solving for p, Initial residual = 0.0031486, Final residual = 0.000137816, No Iterations 29
time step continuity errors : sum local = 8.89634e-08, global = 1.14381e-08, cumulative = 7.52779e-07
DICPCG:  Solving for p, Initial residual = 0.00153713, Final residual = 9.6464e-07, No Iterations 81
time step continuity errors : sum local = 6.23499e-10, global = -2.93996e-11, cumulative = 7.5275e-07
ExecutionTime = 1.55 s  ClockTime = 2 s

Time = 1.4

Courant Number mean: 0.0768714 max: 2.02939
smoothSolver:  Solving for Ux, Initial residual = 0.00202677, Final residual = 7.68367e-06, No Iterations 2
smoothSolver:  Solving for Uy, Initial residual = 0.00275158, Final residual = 1.88273e-06, No Iterations 3
DICPCG:  Solving for p, Initial residual = 0.00310128, Final residual = 0.00013721, No Iterations 29
time step continuity errors : sum local = 8.8766e-08, global = 1.14112e-08, cumulative = 7.64161e-07
DICPCG:  Solving for p, Initial residual = 0.0015154, Final residual = 9.51906e-07, No Iterations 81
time step continuity errors : sum local = 6.16605e-10, global = -2.92453e-11, cumulative = 7.64132e-07
ExecutionTime = 1.57 s  ClockTime = 2 s

Time = 1.4175

Courant Number mean: 0.0770104 max: 2.03035
smoothSolver:  Solving for Ux, Initial residual = 0.00201617, Final residual = 7.52153e-06, No Iterations 2
smoothSolver:  Solving for Uy, Initial residual = 0.00273962, Final residual = 1.84397e-06, No Iterations 3
DICPCG:  Solving for p, Initial residual = 0.00305581, Final residual = 0.000135246, No Iterations 29
time step continuity errors : sum local = 8.76834e-08, global = 1.13281e-08, cumulative = 7.7546e-07
DICPCG:  Solving for p, Initial residual = 0.0014909, Final residual = 9.46794e-07, No Iterations 81
time step continuity errors : sum local = 6.14592e-10, global = -2.91499e-11, cumulative = 7.75431e-07
ExecutionTime = 1.58 s  ClockTime = 2 s

Time = 1.435

Courant Number mean: 0.0771491 max: 2.03129
smoothSolver:  Solving for Ux, Initial residual = 0.00200586, Final residual = 7.36408e-06, No Iterations 2
smoothSolver:  Solving for Uy, Initial residual = 0.00272823, Final residual = 1.80613e-06, No Iterations 3
DICPCG:  Solving for p, Initial residual = 0.00301122, Final residual = 0.00013527, No Iterations 29
time step continuity errors : sum local = 8.78832e-08, global = 1.13124e-08, cumulative = 7.86743e-07
DICPCG:  Solving for p, Initial residual = 0.00146985, Final residual = 9.31405e-07, No Iterations 81
time step continuity errors : sum local = 6.0586e-10, global = -2.87915e-11, cumulative = 7.86714e-07
ExecutionTime = 1.6 s  ClockTime = 2 s

Time = 1.4525

Courant Number mean: 0.0772878 max: 2.03224
smoothSolver:  Solving for Ux, Initial residual = 0.00199641, Final residual = 7.21179e-06, No Iterations 2
smoothSolver:  Solving for Uy, Initial residual = 0.00271776, Final residual = 9.99955e-06, No Iterations 2
DICPCG:  Solving for p, Initial residual = 0.00294433, Final residual = 0.00013602, No Iterations 29
time step continuity errors : sum local = 8.85542e-08, global = 1.12705e-08, cumulative = 7.97985e-07
DICPCG:  Solving for p, Initial residual = 0.00143448, Final residual = 7.95874e-07, No Iterations 81
time step continuity errors : sum local = 5.18768e-10, global = -2.69829e-11, cumulative = 7.97958e-07
ExecutionTime = 1.61 s  ClockTime = 2 s

Time = 1.47

Courant Number mean: 0.0774256 max: 2.03317
smoothSolver:  Solving for Ux, Initial residual = 0.00198749, Final residual = 7.06265e-06, No Iterations 2
smoothSolver:  Solving for Uy, Initial residual = 0.00270771, Final residual = 9.82692e-06, No Iterations 2
DICPCG:  Solving for p, Initial residual = 0.00290151, Final residual = 0.00013421, No Iterations 29
time step continuity errors : sum local = 8.75542e-08, global = 1.11962e-08, cumulative = 8.09154e-07
DICPCG:  Solving for p, Initial residual = 0.00141444, Final residual = 9.77895e-07, No Iterations 80
time step continuity errors : sum local = 6.38691e-10, global = -2.60329e-11, cumulative = 8.09128e-07
ExecutionTime = 1.63 s  ClockTime = 2 s

Time = 1.4875

Courant Number mean: 0.0775616 max: 2.0341
smoothSolver:  Solving for Ux, Initial residual = 0.00197866, Final residual = 6.91907e-06, No Iterations 2
smoothSolver:  Solving for Uy, Initial residual = 0.00269748, Final residual = 9.65206e-06, No Iterations 2
DICPCG:  Solving for p, Initial residual = 0.0028633, Final residual = 0.000132543, No Iterations 29
time step continuity errors : sum local = 8.66378e-08, global = 1.11389e-08, cumulative = 8.20267e-07
DICPCG:  Solving for p, Initial residual = 0.00139416, Final residual = 9.73029e-07, No Iterations 80
time step continuity errors : sum local = 6.36756e-10, global = -2.57495e-11, cumulative = 8.20241e-07
ExecutionTime = 1.64 s  ClockTime = 2 s

Time = 1.505

Courant Number mean: 0.0776979 max: 2.03502
smoothSolver:  Solving for Ux, Initial residual = 0.0019701, Final residual = 6.77942e-06, No Iterations 2
smoothSolver:  Solving for Uy, Initial residual = 0.0026873, Final residual = 9.48081e-06, No Iterations 2
DICPCG:  Solving for p, Initial residual = 0.0028262, Final residual = 0.000132129, No Iterations 29
time step continuity errors : sum local = 8.65339e-08, global = 1.11079e-08, cumulative = 8.31349e-07
DICPCG:  Solving for p, Initial residual = 0.0013748, Final residual = 9.59312e-07, No Iterations 80
time step continuity errors : sum local = 6.28979e-10, global = -2.56503e-11, cumulative = 8.31323e-07
ExecutionTime = 1.69 s  ClockTime = 2 s

Time = 1.5225

Courant Number mean: 0.0778353 max: 2.03594
smoothSolver:  Solving for Ux, Initial residual = 0.00196191, Final residual = 6.64411e-06, No Iterations 2
smoothSolver:  Solving for Uy, Initial residual = 0.00267738, Final residual = 9.31274e-06, No Iterations 2
DICPCG:  Solving for p, Initial residual = 0.00278994, Final residual = 0.000130671, No Iterations 29
time step continuity errors : sum local = 8.57438e-08, global = 1.1057e-08, cumulative = 8.4238e-07
DICPCG:  Solving for p, Initial residual = 0.00135596, Final residual = 9.50156e-07, No Iterations 80
time step continuity errors : sum local = 6.24173e-10, global = -2.54085e-11, cumulative = 8.42355e-07
ExecutionTime = 1.72 s  ClockTime = 2 s

Time = 1.54

Courant Number mean: 0.077971 max: 2.03684
smoothSolver:  Solving for Ux, Initial residual = 0.00195381, Final residual = 6.51262e-06, No Iterations 2
smoothSolver:  Solving for Uy, Initial residual = 0.00266741, Final residual = 9.14779e-06, No Iterations 2
DICPCG:  Solving for p, Initial residual = 0.00275405, Final residual = 0.000129747, No Iterations 29
time step continuity errors : sum local = 8.53025e-08, global = 1.10187e-08, cumulative = 8.53374e-07
DICPCG:  Solving for p, Initial residual = 0.00133702, Final residual = 9.4456e-07, No Iterations 80
time step continuity errors : sum local = 6.21705e-10, global = -2.52619e-11, cumulative = 8.53348e-07
ExecutionTime = 1.73 s  ClockTime = 2 s

Time = 1.5575

Courant Number mean: 0.0781062 max: 2.03774
smoothSolver:  Solving for Ux, Initial residual = 0.00194621, Final residual = 6.38478e-06, No Iterations 2
smoothSolver:  Solving for Uy, Initial residual = 0.00265785, Final residual = 8.98601e-06, No Iterations 2
DICPCG:  Solving for p, Initial residual = 0.00271898, Final residual = 0.000128817, No Iterations 29
time step continuity errors : sum local = 8.4855e-08, global = 1.09773e-08, cumulative = 8.64326e-07
DICPCG:  Solving for p, Initial residual = 0.00131902, Final residual = 9.33736e-07, No Iterations 80
time step continuity errors : sum local = 6.15759e-10, global = -2.5041e-11, cumulative = 8.643e-07
ExecutionTime = 1.75 s  ClockTime = 2 s

Time = 1.575

Courant Number mean: 0.0782417 max: 2.03864
smoothSolver:  Solving for Ux, Initial residual = 0.00193888, Final residual = 6.26037e-06, No Iterations 2
smoothSolver:  Solving for Uy, Initial residual = 0.00264883, Final residual = 8.8276e-06, No Iterations 2
DICPCG:  Solving for p, Initial residual = 0.00268582, Final residual = 0.000127214, No Iterations 29
time step continuity errors : sum local = 8.39596e-08, global = 1.09275e-08, cumulative = 8.75228e-07
DICPCG:  Solving for p, Initial residual = 0.00130089, Final residual = 9.26585e-07, No Iterations 80
time step continuity errors : sum local = 6.12208e-10, global = -2.48424e-11, cumulative = 8.75203e-07
ExecutionTime = 1.76 s  ClockTime = 2 s

Time = 1.5925

Courant Number mean: 0.0783763 max: 2.03952
smoothSolver:  Solving for Ux, Initial residual = 0.00193163, Final residual = 6.13931e-06, No Iterations 2
smoothSolver:  Solving for Uy, Initial residual = 0.00264014, Final residual = 8.67253e-06, No Iterations 2
DICPCG:  Solving for p, Initial residual = 0.00265538, Final residual = 0.00012682, No Iterations 29
time step continuity errors : sum local = 8.38591e-08, global = 1.08974e-08, cumulative = 8.86101e-07
DICPCG:  Solving for p, Initial residual = 0.00128389, Final residual = 9.05701e-07, No Iterations 80
time step continuity errors : sum local = 5.9955e-10, global = -2.47981e-11, cumulative = 8.86076e-07
ExecutionTime = 1.78 s  ClockTime = 2 s

Time = 1.61

Courant Number mean: 0.0785101 max: 2.0404
smoothSolver:  Solving for Ux, Initial residual = 0.00192456, Final residual = 6.02162e-06, No Iterations 2
smoothSolver:  Solving for Uy, Initial residual = 0.00263219, Final residual = 8.52077e-06, No Iterations 2
DICPCG:  Solving for p, Initial residual = 0.00262597, Final residual = 0.000124532, No Iterations 29
time step continuity errors : sum local = 8.25026e-08, global = 1.08338e-08, cumulative = 8.96909e-07
DICPCG:  Solving for p, Initial residual = 0.00126609, Final residual = 9.12803e-07, No Iterations 80
time step continuity errors : sum local = 6.05396e-10, global = -2.451e-11, cumulative = 8.96885e-07
ExecutionTime = 1.79 s  ClockTime = 2 s

Time = 1.6275

Courant Number mean: 0.0786428 max: 2.04127
smoothSolver:  Solving for Ux, Initial residual = 0.00191758, Final residual = 5.90757e-06, No Iterations 2
smoothSolver:  Solving for Uy, Initial residual = 0.0026247, Final residual = 8.3724e-06, No Iterations 2
DICPCG:  Solving for p, Initial residual = 0.00259862, Final residual = 0.000124699, No Iterations 29
time step continuity errors : sum local = 8.27703e-08, global = 1.08171e-08, cumulative = 9.07702e-07
DICPCG:  Solving for p, Initial residual = 0.00125004, Final residual = 8.98357e-07, No Iterations 80
time step continuity errors : sum local = 5.96941e-10, global = -2.41823e-11, cumulative = 9.07678e-07
ExecutionTime = 1.81 s  ClockTime = 2 s

Time = 1.645

Courant Number mean: 0.0787749 max: 2.04214
smoothSolver:  Solving for Ux, Initial residual = 0.00191068, Final residual = 5.79687e-06, No Iterations 2
smoothSolver:  Solving for Uy, Initial residual = 0.00261796, Final residual = 8.22752e-06, No Iterations 2
[...]

Time = 5.7575

Reconstructing FV fields

    Reconstructing volScalarFields

        p

    Reconstructing volVectorFields

        U

    Reconstructing surfaceScalarFields

        phi

Reconstructing point fields

No point fields

No lagrangian fields

Time = 6.0025

Reconstructing FV fields

    Reconstructing volScalarFields

        p

    Reconstructing volVectorFields

        U

    Reconstructing surfaceScalarFields

        phi

Reconstructing point fields

No point fields

No lagrangian fields

Time = 6.2475

Reconstructing FV fields

    Reconstructing volScalarFields

        p

    Reconstructing volVectorFields

        U

    Reconstructing surfaceScalarFields

        phi

Reconstructing point fields

No point fields

No lagrangian fields

Time = 6.4925

Reconstructing FV fields

    Reconstructing volScalarFields

        p

    Reconstructing volVectorFields

        U

    Reconstructing surfaceScalarFields

        phi

Reconstructing point fields

No point fields

No lagrangian fields

Time = 6.755

Reconstructing FV fields

    Reconstructing volScalarFields

        p

    Reconstructing volVectorFields

        U

    Reconstructing surfaceScalarFields

        phi

Reconstructing point fields

No point fields

No lagrangian fields

Time = 7

Reconstructing FV fields

    Reconstructing volScalarFields

        p

    Reconstructing volVectorFields

        U

    Reconstructing surfaceScalarFields

        phi

Reconstructing point fields

No point fields

No lagrangian fields

Time = 7.245

Reconstructing FV fields

    Reconstructing volScalarFields

        p

    Reconstructing volVectorFields

        U

    Reconstructing surfaceScalarFields

        phi

Reconstructing point fields

No point fields

No lagrangian fields

Time = 7.5075

Reconstructing FV fields

    Reconstructing volScalarFields

        p

    Reconstructing volVectorFields

        U

    Reconstructing surfaceScalarFields

        phi

Reconstructing point fields

No point fields

No lagrangian fields

Time = 7.7525

Reconstructing FV fields

    Reconstructing volScalarFields

        p

    Reconstructing volVectorFields

        U

    Reconstructing surfaceScalarFields

        phi

Reconstructing point fields

No point fields

No lagrangian fields

Time = 7.9975

Reconstructing FV fields

    Reconstructing volScalarFields

        p

    Reconstructing volVectorFields

        U

    Reconstructing surfaceScalarFields

        phi

Reconstructing point fields

No point fields

No lagrangian fields

Time = 8.2425

Reconstructing FV fields

    Reconstructing volScalarFields

        p

    Reconstructing volVectorFields

        U

    Reconstructing surfaceScalarFields

        phi

Reconstructing point fields

No point fields

No lagrangian fields

Time = 8.505

Reconstructing FV fields

    Reconstructing volScalarFields

        p

    Reconstructing volVectorFields

        U

    Reconstructing surfaceScalarFields

        phi

Reconstructing point fields

No point fields

No lagrangian fields

Time = 8.75

Reconstructing FV fields

    Reconstructing volScalarFields

        p

    Reconstructing volVectorFields

        U

    Reconstructing surfaceScalarFields

        phi

Reconstructing point fields

No point fields

No lagrangian fields

Time = 8.995

Reconstructing FV fields

    Reconstructing volScalarFields

        p

    Reconstructing volVectorFields

        U

    Reconstructing surfaceScalarFields

        phi

Reconstructing point fields

No point fields

No lagrangian fields

Time = 9.2575

Reconstructing FV fields

    Reconstructing volScalarFields

        p

    Reconstructing volVectorFields

        U

    Reconstructing surfaceScalarFields

        phi

Reconstructing point fields

No point fields

No lagrangian fields

Time = 9.5025

Reconstructing FV fields

    Reconstructing volScalarFields

        p

    Reconstructing volVectorFields

        U

    Reconstructing surfaceScalarFields

        phi

Reconstructing point fields

No point fields

No lagrangian fields

Time = 9.7475

Reconstructing FV fields

    Reconstructing volScalarFields

        p

    Reconstructing volVectorFields

        U

    Reconstructing surfaceScalarFields

        phi

Reconstructing point fields

No point fields

No lagrangian fields

Time = 9.9925

Reconstructing FV fields

    Reconstructing volScalarFields

        p

    Reconstructing volVectorFields

        U

    Reconstructing surfaceScalarFields

        phi

Reconstructing point fields

No point fields

No lagrangian fields

Time = 10.255

Reconstructing FV fields

    Reconstructing volScalarFields

        p

    Reconstructing volVectorFields

        U

    Reconstructing surfaceScalarFields

        phi

Reconstructing point fields

No point fields

No lagrangian fields

Time = 10.5

Reconstructing FV fields

    Reconstructing volScalarFields

        p

    Reconstructing volVectorFields

        U

    Reconstructing surfaceScalarFields

        phi

Reconstructing point fields

No point fields

No lagrangian fields

Time = 10.745

Reconstructing FV fields

    Reconstructing volScalarFields

        p

    Reconstructing volVectorFields

        U

    Reconstructing surfaceScalarFields

        phi

Reconstructing point fields

No point fields

No lagrangian fields

Time = 11.0075

Reconstructing FV fields

    Reconstructing volScalarFields

        p

    Reconstructing volVectorFields

        U

    Reconstructing surfaceScalarFields

        phi

Reconstructing point fields

No point fields

No lagrangian fields

Time = 11.2525

Reconstructing FV fields

    Reconstructing volScalarFields

        p

    Reconstructing volVectorFields

        U

    Reconstructing surfaceScalarFields

        phi

Reconstructing point fields

No point fields

No lagrangian fields

Time = 11.4975

Reconstructing FV fields

    Reconstructing volScalarFields

        p

    Reconstructing volVectorFields

        U

    Reconstructing surfaceScalarFields

        phi

Reconstructing point fields

No point fields

No lagrangian fields

Time = 11.7425

Reconstructing FV fields

    Reconstructing volScalarFields

        p

    Reconstructing volVectorFields

        U

    Reconstructing surfaceScalarFields

        phi

Reconstructing point fields

No point fields

No lagrangian fields

Time = 12.005

Reconstructing FV fields

    Reconstructing volScalarFields

        p

    Reconstructing volVectorFields

        U

    Reconstructing surfaceScalarFields

        phi

Reconstructing point fields

No point fields

No lagrangian fields

Time = 12.25

Reconstructing FV fields

    Reconstructing volScalarFields

        p

    Reconstructing volVectorFields

        U

    Reconstructing surfaceScalarFields

        phi

Reconstructing point fields

No point fields

No lagrangian fields

Time = 12.495

Reconstructing FV fields

    Reconstructing volScalarFields

        p

    Reconstructing volVectorFields

        U

    Reconstructing surfaceScalarFields

        phi

Reconstructing point fields

No point fields

No lagrangian fields

Time = 12.7575

Reconstructing FV fields

    Reconstructing volScalarFields

        p

    Reconstructing volVectorFields

        U

    Reconstructing surfaceScalarFields

        phi

Reconstructing point fields

No point fields

No lagrangian fields

Time = 13.0025

Reconstructing FV fields

    Reconstructing volScalarFields

        p

    Reconstructing volVectorFields

        U

    Reconstructing surfaceScalarFields

        phi

Reconstructing point fields

No point fields

No lagrangian fields

Time = 13.2475

Reconstructing FV fields

    Reconstructing volScalarFields

        p

    Reconstructing volVectorFields

        U

    Reconstructing surfaceScalarFields

        phi

Reconstructing point fields

No point fields

No lagrangian fields

Time = 13.4925

Reconstructing FV fields

    Reconstructing volScalarFields

        p

    Reconstructing volVectorFields

        U

    Reconstructing surfaceScalarFields

        phi

Reconstructing point fields

No point fields

No lagrangian fields

Time = 13.755

Reconstructing FV fields

    Reconstructing volScalarFields

        p

    Reconstructing volVectorFields

        U

    Reconstructing surfaceScalarFields

        phi

Reconstructing point fields

No point fields

No lagrangian fields

Time = 14

Reconstructing FV fields

    Reconstructing volScalarFields

        p

    Reconstructing volVectorFields

        U

    Reconstructing surfaceScalarFields

        phi

Reconstructing point fields

No point fields

No lagrangian fields

Time = 14.245

Reconstructing FV fields

    Reconstructing volScalarFields

        p

    Reconstructing volVectorFields

        U

    Reconstructing surfaceScalarFields

        phi

Reconstructing point fields

No point fields

No lagrangian fields

Time = 14.5075

Reconstructing FV fields

    Reconstructing volScalarFields

        p

    Reconstructing volVectorFields

        U

    Reconstructing surfaceScalarFields

        phi

Reconstructing point fields

No point fields

No lagrangian fields

Time = 14.7525

Reconstructing FV fields

    Reconstructing volScalarFields

        p

    Reconstructing volVectorFields

        U

    Reconstructing surfaceScalarFields

        phi

Reconstructing point fields

No point fields

No lagrangian fields

Time = 14.9975

Reconstructing FV fields

    Reconstructing volScalarFields

        p

    Reconstructing volVectorFields

        U

    Reconstructing surfaceScalarFields

        phi

Reconstructing point fields

No point fields

No lagrangian fields

Time = 15.2425

Reconstructing FV fields

    Reconstructing volScalarFields

        p

    Reconstructing volVectorFields

        U

    Reconstructing surfaceScalarFields

        phi

Reconstructing point fields

No point fields

No lagrangian fields

Time = 15.505

Reconstructing FV fields

    Reconstructing volScalarFields

        p

    Reconstructing volVectorFields

        U

    Reconstructing surfaceScalarFields

        phi

Reconstructing point fields

No point fields

No lagrangian fields

Time = 15.75

Reconstructing FV fields

    Reconstructing volScalarFields

        p

    Reconstructing volVectorFields

        U

    Reconstructing surfaceScalarFields

        phi

Reconstructing point fields

No point fields

No lagrangian fields

Time = 15.995

Reconstructing FV fields

    Reconstructing volScalarFields

        p

    Reconstructing volVectorFields

        U

    Reconstructing surfaceScalarFields

        phi

Reconstructing point fields

No point fields

No lagrangian fields

Time = 16.2575

Reconstructing FV fields

    Reconstructing volScalarFields

        p

    Reconstructing volVectorFields

        U

    Reconstructing surfaceScalarFields

        phi

Reconstructing point fields

No point fields

No lagrangian fields

Time = 16.5025

Reconstructing FV fields

    Reconstructing volScalarFields

        p

    Reconstructing volVectorFields

        U

    Reconstructing surfaceScalarFields

        phi

Reconstructing point fields

No point fields

No lagrangian fields

Time = 16.7475

Reconstructing FV fields

    Reconstructing volScalarFields

        p

    Reconstructing volVectorFields

        U

    Reconstructing surfaceScalarFields

        phi

Reconstructing point fields

No point fields

No lagrangian fields

Time = 16.9925

Reconstructing FV fields

    Reconstructing volScalarFields

        p

    Reconstructing volVectorFields

        U

    Reconstructing surfaceScalarFields

        phi

Reconstructing point fields

No point fields

No lagrangian fields

Time = 17.255

Reconstructing FV fields

    Reconstructing volScalarFields

        p

    Reconstructing volVectorFields

        U

    Reconstructing surfaceScalarFields

        phi

Reconstructing point fields

No point fields

No lagrangian fields

Time = 17.5

Reconstructing FV fields

    Reconstructing volScalarFields

        p

    Reconstructing volVectorFields

        U

    Reconstructing surfaceScalarFields

        phi

Reconstructing point fields

No point fields

No lagrangian fields

Time = 17.745

Reconstructing FV fields

    Reconstructing volScalarFields

        p

    Reconstructing volVectorFields

        U

    Reconstructing surfaceScalarFields

        phi

Reconstructing point fields

No point fields

No lagrangian fields

Time = 18.0075

Reconstructing FV fields

    Reconstructing volScalarFields

        p

    Reconstructing volVectorFields

        U

    Reconstructing surfaceScalarFields

        phi

Reconstructing point fields

No point fields

No lagrangian fields

Time = 18.2525

Reconstructing FV fields

    Reconstructing volScalarFields

        p

    Reconstructing volVectorFields

        U

    Reconstructing surfaceScalarFields

        phi

Reconstructing point fields

No point fields

No lagrangian fields

Time = 18.4975

Reconstructing FV fields

    Reconstructing volScalarFields

        p

    Reconstructing volVectorFields

        U

    Reconstructing surfaceScalarFields

        phi

Reconstructing point fields

No point fields

No lagrangian fields

Time = 18.7425

Reconstructing FV fields

    Reconstructing volScalarFields

        p

    Reconstructing volVectorFields

        U

    Reconstructing surfaceScalarFields

        phi

Reconstructing point fields

No point fields

No lagrangian fields

Time = 19.005

Reconstructing FV fields

    Reconstructing volScalarFields

        p

    Reconstructing volVectorFields

        U

    Reconstructing surfaceScalarFields

        phi

Reconstructing point fields

No point fields

No lagrangian fields

Time = 19.25

Reconstructing FV fields

    Reconstructing volScalarFields

        p

    Reconstructing volVectorFields

        U

    Reconstructing surfaceScalarFields

        phi

Reconstructing point fields

No point fields

No lagrangian fields

Time = 19.495

Reconstructing FV fields

    Reconstructing volScalarFields

        p

    Reconstructing volVectorFields

        U

    Reconstructing surfaceScalarFields

        phi

Reconstructing point fields

No point fields

No lagrangian fields

Time = 19.7575

Reconstructing FV fields

    Reconstructing volScalarFields

        p

    Reconstructing volVectorFields

        U

    Reconstructing surfaceScalarFields

        phi

Reconstructing point fields

No point fields

No lagrangian fields

Time = 20.0025

Reconstructing FV fields

    Reconstructing volScalarFields

        p

    Reconstructing volVectorFields

        U

    Reconstructing surfaceScalarFields

        phi

Reconstructing point fields

No point fields

No lagrangian fields

Time = 20.2475

Reconstructing FV fields

    Reconstructing volScalarFields

        p

    Reconstructing volVectorFields

        U

    Reconstructing surfaceScalarFields

        phi

Reconstructing point fields

No point fields

No lagrangian fields

Time = 20.4925

Reconstructing FV fields

    Reconstructing volScalarFields

        p

    Reconstructing volVectorFields

        U

    Reconstructing surfaceScalarFields

        phi

Reconstructing point fields

No point fields

No lagrangian fields

Time = 20.755

Reconstructing FV fields

    Reconstructing volScalarFields

        p

    Reconstructing volVectorFields

        U

    Reconstructing surfaceScalarFields

        phi

Reconstructing point fields

No point fields

No lagrangian fields

Time = 21

Reconstructing FV fields

    Reconstructing volScalarFields

        p

    Reconstructing volVectorFields

        U

    Reconstructing surfaceScalarFields

        phi

Reconstructing point fields

No point fields

No lagrangian fields

Time = 21.245

Reconstructing FV fields

    Reconstructing volScalarFields

        p

    Reconstructing volVectorFields

        U

    Reconstructing surfaceScalarFields

        phi

Reconstructing point fields

No point fields

No lagrangian fields

Time = 21.5075

Reconstructing FV fields

    Reconstructing volScalarFields

        p

    Reconstructing volVectorFields

        U

    Reconstructing surfaceScalarFields

        phi

Reconstructing point fields

No point fields

No lagrangian fields

Time = 21.7525

Reconstructing FV fields

    Reconstructing volScalarFields

        p

    Reconstructing volVectorFields

        U

    Reconstructing surfaceScalarFields

        phi

Reconstructing point fields

No point fields

No lagrangian fields

Time = 21.9975

Reconstructing FV fields

    Reconstructing volScalarFields

        p

    Reconstructing volVectorFields

        U

    Reconstructing surfaceScalarFields

        phi

Reconstructing point fields

No point fields

No lagrangian fields

Time = 22.2425

Reconstructing FV fields

    Reconstructing volScalarFields

        p

    Reconstructing volVectorFields

        U

    Reconstructing surfaceScalarFields

        phi

Reconstructing point fields

No point fields

No lagrangian fields

Time = 22.505

Reconstructing FV fields

    Reconstructing volScalarFields

        p

    Reconstructing volVectorFields

        U

    Reconstructing surfaceScalarFields

        phi

Reconstructing point fields

No point fields

No lagrangian fields

Time = 22.75

Reconstructing FV fields

    Reconstructing volScalarFields

        p

    Reconstructing volVectorFields

        U

    Reconstructing surfaceScalarFields

        phi

Reconstructing point fields

No point fields

No lagrangian fields

Time = 22.995

Reconstructing FV fields

    Reconstructing volScalarFields

        p

    Reconstructing volVectorFields

        U

    Reconstructing surfaceScalarFields

        phi

Reconstructing point fields

No point fields

No lagrangian fields

Time = 23.2575

Reconstructing FV fields

    Reconstructing volScalarFields

        p

    Reconstructing volVectorFields

        U

    Reconstructing surfaceScalarFields

        phi

Reconstructing point fields

No point fields

No lagrangian fields

Time = 23.5025

Reconstructing FV fields

    Reconstructing volScalarFields

        p

    Reconstructing volVectorFields

        U

    Reconstructing surfaceScalarFields

        phi

Reconstructing point fields

No point fields

No lagrangian fields

Time = 23.7475

Reconstructing FV fields

    Reconstructing volScalarFields

        p

    Reconstructing volVectorFields

        U

    Reconstructing surfaceScalarFields

        phi

Reconstructing point fields

No point fields

No lagrangian fields

Time = 23.9925

Reconstructing FV fields

    Reconstructing volScalarFields

        p

    Reconstructing volVectorFields

        U

    Reconstructing surfaceScalarFields

        phi

Reconstructing point fields

No point fields

No lagrangian fields

Time = 24.255

Reconstructing FV fields

    Reconstructing volScalarFields

        p

    Reconstructing volVectorFields

        U

    Reconstructing surfaceScalarFields

        phi

Reconstructing point fields

No point fields

No lagrangian fields

Time = 24.5

Reconstructing FV fields

    Reconstructing volScalarFields

        p

    Reconstructing volVectorFields

        U

    Reconstructing surfaceScalarFields

        phi

Reconstructing point fields

No point fields

No lagrangian fields

Time = 24.745

Reconstructing FV fields

    Reconstructing volScalarFields

        p

    Reconstructing volVectorFields

        U

    Reconstructing surfaceScalarFields

        phi

Reconstructing point fields

No point fields

No lagrangian fields

Time = 25.0075

Reconstructing FV fields

    Reconstructing volScalarFields

        p

    Reconstructing volVectorFields

        U

    Reconstructing surfaceScalarFields

        phi

Reconstructing point fields

No point fields

No lagrangian fields


End

