/work/05113/danieler/stampede2/CFD-Final-Project/circular-cylinder-10-20
Mon May 11 01:19:14 CDT 2020
/*---------------------------------------------------------------------------*\
  =========                 |
  \\      /  F ield         | OpenFOAM: The Open Source CFD Toolbox
   \\    /   O peration     | Website:  https://openfoam.org
    \\  /    A nd           | Version:  6.0
     \\/     M anipulation  |
\*---------------------------------------------------------------------------*/
Build  : 6.0
Exec   : blockMesh
Date   : May 11 2020
Time   : 01:19:15
Host   : "c441-091.stampede2.tacc.utexas.edu"
PID    : 176883
I/O    : uncollated
Case   : /work/05113/danieler/stampede2/CFD-Final-Project/circular-cylinder-10-20
nProcs : 1
sigFpe : Enabling floating point exception trapping (FOAM_SIGFPE).
fileModificationChecking : Monitoring run-time modified files using timeStampMaster (fileModificationSkew 10)
allowSystemOperations : Allowing user-supplied system call operations

// * * * * * * * * * * * * * * * * * * * * * * * * * * * * * * * * * * * * * //
Create time

Creating block mesh from
    "/work/05113/danieler/stampede2/CFD-Final-Project/circular-cylinder-10-20/system/blockMeshDict"
Creating block edges
No non-planar block faces defined
Creating topology blocks
Creating topology patches

Creating block mesh topology

Check topology

	Basic statistics
		Number of internal faces : 28
		Number of boundary faces : 64
		Number of defined boundary faces : 64
		Number of undefined boundary faces : 0
	Checking patch -> block consistency

Creating block offsets
Creating merge list .

Creating polyMesh from blockMesh
Creating points with scale 1
    Block 0 cell size :
        i : 0.05 .. 0.05
        j : 0.0392592 .. 0.0392592
        k : 1 .. 1

    Block 1 cell size :
        i : 0.0392592 .. 0.0392592
        j : 0.05 .. 0.05
        k : 1 .. 1

    Block 2 cell size :
        i : 0.0392592 .. 0.0392592
        j : 0.0499924 .. 0.0499924
        k : 1 .. 1

    Block 3 cell size :
        i : 0.05 .. 0.05
        j : 0.0785183 .. 0.0785183
        k : 1 .. 1

    Block 4 cell size :
        i : 0.0499924 .. 0.0499924
        j : 0.0785183 .. 0.0785183
        k : 1 .. 1

    Block 5 cell size :
        i : 0.0785183 .. 0.0785183
        j : 0.0499924 .. 0.0499924
        k : 1 .. 1

    Block 6 cell size :
        i : 0.0785183 .. 0.0785183
        j : 0.05 .. 0.05
        k : 1 .. 1

    Block 7 cell size :
        i : 0.0499924 .. 0.0499924
        j : 0.0392592 .. 0.0392592
        k : 1 .. 1

    Block 8 cell size :
        i : 0.26355 .. 1.0542
        j : 0.0785183 .. 0.0785183
        k : 1 .. 1

    Block 9 cell size :
        i : 0.270262 .. 1.08105
        j : 0.126864 .. 0.507457
        k : 1 .. 1

    Block 10 cell size :
        i : 0.0785183 .. 0.0785183
        j : 0.11356 .. 0.454238
        k : 1 .. 1

    Block 11 cell size :
        i : 0.0785183 .. 0.0785183
        j : 0.126864 .. 0.507457
        k : 1 .. 1

    Block 12 cell size :
        i : 0.27929 .. 0.27929
        j : 0.126864 .. 0.507457
        k : 1 .. 1

    Block 13 cell size :
        i : 0.25 .. 0.25
        j : 0.07071 .. 0.07071
        k : 1 .. 1

    Block 14 cell size :
        i : 0.27929 .. 0.27929
        j : 0.07071 .. 0.07071
        k : 1 .. 1

    Block 15 cell size :
        i : 0.27929 .. 0.27929
        j : 0.507457 .. 0.126864
        k : 1 .. 1

    Block 16 cell size :
        i : 0.07071 .. 0.07071
        j : 0.507457 .. 0.126864
        k : 1 .. 1

    Block 17 cell size :
        i : 0.07071 .. 0.07071
        j : 0.454238 .. 0.11356
        k : 1 .. 1

    Block 18 cell size :
        i : 0.270262 .. 1.08105
        j : 0.507457 .. 0.126864
        k : 1 .. 1

    Block 19 cell size :
        i : 0.270262 .. 1.08105
        j : 0.0785183 .. 0.0785183
        k : 1 .. 1

Creating cells
Creating patches

Writing polyMesh
----------------
Mesh Information
----------------
  boundingBox: (-3.5 -3.5 0) (12.5 3.5 1)
  nPoints: 5060
  nCells: 2400
  nFaces: 9730
  nInternalFaces: 4670
----------------
Patches
----------------
  patch 0 (start: 4670 size: 40) name: inlet
  patch 1 (start: 4710 size: 40) name: outlet
  patch 2 (start: 4750 size: 50) name: top
  patch 3 (start: 4800 size: 50) name: bottom
  patch 4 (start: 4850 size: 80) name: cylinder
  patch 5 (start: 4930 size: 4800) name: frontandback

End

/*---------------------------------------------------------------------------*\
  =========                 |
  \\      /  F ield         | OpenFOAM: The Open Source CFD Toolbox
   \\    /   O peration     | Website:  https://openfoam.org
    \\  /    A nd           | Version:  6.0
     \\/     M anipulation  |
\*---------------------------------------------------------------------------*/
Build  : 6.0
Exec   : checkMesh
Date   : May 11 2020
Time   : 01:19:16
Host   : "c441-091.stampede2.tacc.utexas.edu"
PID    : 176888
I/O    : uncollated
Case   : /work/05113/danieler/stampede2/CFD-Final-Project/circular-cylinder-10-20
nProcs : 1
sigFpe : Enabling floating point exception trapping (FOAM_SIGFPE).
fileModificationChecking : Monitoring run-time modified files using timeStampMaster (fileModificationSkew 10)
allowSystemOperations : Allowing user-supplied system call operations

// * * * * * * * * * * * * * * * * * * * * * * * * * * * * * * * * * * * * * //
Create time

Create polyMesh for time = 0

Time = 0

Mesh stats
    points:           5060
    internal points:  0
    faces:            9730
    internal faces:   4670
    cells:            2400
    faces per cell:   6
    boundary patches: 6
    point zones:      0
    face zones:       0
    cell zones:       0

Overall number of cells of each type:
    hexahedra:     2400
    prisms:        0
    wedges:        0
    pyramids:      0
    tet wedges:    0
    tetrahedra:    0
    polyhedra:     0

Checking topology...
    Boundary definition OK.
    Cell to face addressing OK.
    Point usage OK.
    Upper triangular ordering OK.
    Face vertices OK.
    Number of regions: 1 (OK).

Checking patch topology for multiply connected surfaces...
    Patch               Faces    Points   Surface topology                  
    inlet               40       82       ok (non-closed singly connected)  
    outlet              40       82       ok (non-closed singly connected)  
    top                 50       102      ok (non-closed singly connected)  
    bottom              50       102      ok (non-closed singly connected)  
    cylinder            80       160      ok (non-closed singly connected)  
    frontandback        4800     5060     ok (non-closed singly connected)  

Checking geometry...
    Overall domain bounding box (-3.5 -3.5 0) (12.5 3.5 1)
    Mesh has 2 geometric (non-empty/wedge) directions (1 1 0)
    Mesh has 2 solution (non-empty) directions (1 1 0)
    All edges aligned with or perpendicular to non-empty directions.
    Boundary openness (-1.63526e-18 9.40272e-18 -1.04237e-15) OK.
    Max cell openness = 2.18433e-16 OK.
    Max aspect ratio = 15.2885 OK.
    Minimum face area = 0.00205925. Maximum face area = 1.08105.  Face area magnitudes OK.
    Min volume = 0.00205925. Max volume = 0.548585.  Total volume = 111.215.  Cell volumes OK.
    Mesh non-orthogonality Max: 41.969 average: 11.2951
    Non-orthogonality check OK.
    Face pyramids OK.
    Max skewness = 0.47037 OK.
    Coupled point location match (average 0) OK.

Mesh OK.

End

/*---------------------------------------------------------------------------*\
  =========                 |
  \\      /  F ield         | OpenFOAM: The Open Source CFD Toolbox
   \\    /   O peration     | Website:  https://openfoam.org
    \\  /    A nd           | Version:  6.0
     \\/     M anipulation  |
\*---------------------------------------------------------------------------*/
Build  : 6.0
Exec   : decomposePar
Date   : May 11 2020
Time   : 01:19:17
Host   : "c441-091.stampede2.tacc.utexas.edu"
PID    : 176944
I/O    : uncollated
Case   : /work/05113/danieler/stampede2/CFD-Final-Project/circular-cylinder-10-20
nProcs : 1
sigFpe : Enabling floating point exception trapping (FOAM_SIGFPE).
fileModificationChecking : Monitoring run-time modified files using timeStampMaster (fileModificationSkew 10)
allowSystemOperations : Allowing user-supplied system call operations

// * * * * * * * * * * * * * * * * * * * * * * * * * * * * * * * * * * * * * //
Create time



Decomposing mesh region0

Create mesh

Calculating distribution of cells
Selecting decompositionMethod hierarchical

Finished decomposition in 0 s

Calculating original mesh data

Distributing cells to processors

Distributing faces to processors

Distributing points to processors

Constructing processor meshes

Processor 0
    Number of cells = 600
    Number of faces shared with processor 1 = 62
    Number of processor patches = 1
    Number of processor faces = 62
    Number of boundary faces = 1264

Processor 1
    Number of cells = 600
    Number of faces shared with processor 0 = 62
    Number of faces shared with processor 2 = 49
    Number of processor patches = 2
    Number of processor faces = 111
    Number of boundary faces = 1281

Processor 2
    Number of cells = 600
    Number of faces shared with processor 1 = 49
    Number of faces shared with processor 3 = 40
    Number of processor patches = 2
    Number of processor faces = 89
    Number of boundary faces = 1245

Processor 3
    Number of cells = 600
    Number of faces shared with processor 2 = 40
    Number of processor patches = 1
    Number of processor faces = 40
    Number of boundary faces = 1270

Number of processor faces = 151
Max number of cells = 600 (0% above average 600)
Max number of processor patches = 2 (33.3333% above average 1.5)
Max number of faces between processors = 111 (47.0199% above average 75.5)

Time = 0
--> FOAM Warning : 
    From function bool Foam::IOobject::readHeader(Foam::Istream &)
    in file db/IOobject/IOobjectReadHeader.C at line 88
    Reading "/work/05113/danieler/stampede2/CFD-Final-Project/circular-cylinder-10-20/0/log" at line 8
    First token could not be read or is not the keyword 'FoamFile'

Check header is of the form:

/*--------------------------------*- C++ -*----------------------------------*\
  =========                 |
  \\      /  F ield         | OpenFOAM: The Open Source CFD Toolbox
   \\    /   O peration     | Website:  https://openfoam.org
    \\  /    A nd           | Version:  6.0
     \\/     M anipulation  |
\*---------------------------------------------------------------------------*/
FoamFile
{
    version     2.0;
    format      ascii;
    class       IOobject;
    location    "0";
    object      log;
}
// * * * * * * * * * * * * * * * * * * * * * * * * * * * * * * * * * * * * * //


Processor 0: field transfer
Processor 1: field transfer
Processor 2: field transfer
Processor 3: field transfer

End

TACC:  Starting up job 5678654 
TACC:  Starting parallel tasks... 
/*---------------------------------------------------------------------------*\
  =========                 |
  \\      /  F ield         | OpenFOAM: The Open Source CFD Toolbox
   \\    /   O peration     | Website:  https://openfoam.org
    \\  /    A nd           | Version:  6.0
     \\/     M anipulation  |
\*---------------------------------------------------------------------------*/
Build  : 6.0
Exec   : /home1/apps/intel18/impi18_0/OpenFOAM/OpenFOAM-6.0/platforms/linux64IccDPInt32Opt/bin/icoFoam -parallel
Date   : May 11 2020
Time   : 01:19:20
Host   : "c441-091.stampede2.tacc.utexas.edu"
PID    : 177073
I/O    : uncollated
Case   : /work/05113/danieler/stampede2/CFD-Final-Project/circular-cylinder-10-20
nProcs : 4
Slaves : 
3
(
"c441-091.stampede2.tacc.utexas.edu.177074"
"c441-091.stampede2.tacc.utexas.edu.177075"
"c441-091.stampede2.tacc.utexas.edu.177076"
)

Pstream initialized with:
    floatTransfer      : 0
    nProcsSimpleSum    : 0
    commsType          : nonBlocking
    polling iterations : 0
sigFpe : Enabling floating point exception trapping (FOAM_SIGFPE).
fileModificationChecking : Monitoring run-time modified files using timeStampMaster (fileModificationSkew 10)
allowSystemOperations : Allowing user-supplied system call operations

// * * * * * * * * * * * * * * * * * * * * * * * * * * * * * * * * * * * * * //
Create time

Create mesh for time = 0

Reading transportProperties

Reading field p

Reading field U

Reading/calculating face flux field phi


Starting time loop

Time = 0.0125

Courant Number mean: 0.0423182 max: 0.373062
smoothSolver:  Solving for Ux, Initial residual = 1, Final residual = 3.87897e-06, No Iterations 7
smoothSolver:  Solving for Uy, Initial residual = 1, Final residual = 4.76609e-06, No Iterations 7
DICPCG:  Solving for p, Initial residual = 1, Final residual = 0.0439035, No Iterations 60
time step continuity errors : sum local = 1.01944e-05, global = 1.16918e-08, cumulative = 1.16918e-08
DICPCG:  Solving for p, Initial residual = 0.247521, Final residual = 9.09283e-07, No Iterations 102
time step continuity errors : sum local = 7.25197e-10, global = -7.88464e-12, cumulative = 1.16839e-08
ExecutionTime = 0.11 s  ClockTime = 0 s

Time = 0.025

Courant Number mean: 0.0446668 max: 1.28223
smoothSolver:  Solving for Ux, Initial residual = 0.310875, Final residual = 2.35006e-06, No Iterations 6
smoothSolver:  Solving for Uy, Initial residual = 0.311853, Final residual = 3.37939e-06, No Iterations 6
DICPCG:  Solving for p, Initial residual = 0.388139, Final residual = 0.018528, No Iterations 59
time step continuity errors : sum local = 1.32303e-05, global = 3.8955e-07, cumulative = 4.01234e-07
DICPCG:  Solving for p, Initial residual = 0.503074, Final residual = 9.0002e-07, No Iterations 104
time step continuity errors : sum local = 3.58045e-10, global = 1.97775e-12, cumulative = 4.01236e-07
ExecutionTime = 0.13 s  ClockTime = 0 s

Time = 0.0375

Courant Number mean: 0.0455892 max: 1.69013
smoothSolver:  Solving for Ux, Initial residual = 0.0536994, Final residual = 2.30954e-06, No Iterations 6
smoothSolver:  Solving for Uy, Initial residual = 0.0519997, Final residual = 2.27847e-06, No Iterations 6
DICPCG:  Solving for p, Initial residual = 0.360662, Final residual = 0.0174504, No Iterations 17
time step continuity errors : sum local = 4.87865e-06, global = -7.90692e-08, cumulative = 3.22167e-07
DICPCG:  Solving for p, Initial residual = 0.0714684, Final residual = 9.61217e-07, No Iterations 94
time step continuity errors : sum local = 3.34178e-10, global = -3.29133e-12, cumulative = 3.22164e-07
ExecutionTime = 0.15 s  ClockTime = 0 s

Time = 0.05

Courant Number mean: 0.0463141 max: 1.94104
smoothSolver:  Solving for Ux, Initial residual = 0.0402683, Final residual = 5.11064e-06, No Iterations 6
smoothSolver:  Solving for Uy, Initial residual = 0.0418072, Final residual = 5.07002e-06, No Iterations 6
DICPCG:  Solving for p, Initial residual = 0.201462, Final residual = 0.0100346, No Iterations 8
time step continuity errors : sum local = 4.1672e-06, global = 2.41607e-08, cumulative = 3.46324e-07
DICPCG:  Solving for p, Initial residual = 0.046864, Final residual = 8.73489e-07, No Iterations 87
time step continuity errors : sum local = 4.13188e-10, global = -2.90782e-12, cumulative = 3.46321e-07
ExecutionTime = 0.17 s  ClockTime = 0 s

Time = 0.0625

Courant Number mean: 0.0469556 max: 2.09953
smoothSolver:  Solving for Ux, Initial residual = 0.0288437, Final residual = 7.771e-06, No Iterations 6
smoothSolver:  Solving for Uy, Initial residual = 0.031745, Final residual = 9.53893e-06, No Iterations 6
DICPCG:  Solving for p, Initial residual = 0.136633, Final residual = 0.00571282, No Iterations 7
time step continuity errors : sum local = 2.94126e-06, global = 7.26869e-09, cumulative = 3.5359e-07
DICPCG:  Solving for p, Initial residual = 0.0336025, Final residual = 9.19117e-07, No Iterations 87
time step continuity errors : sum local = 5.17759e-10, global = -5.97499e-12, cumulative = 3.53584e-07
ExecutionTime = 0.19 s  ClockTime = 0 s

Time = 0.075

Courant Number mean: 0.0474744 max: 2.20263
smoothSolver:  Solving for Ux, Initial residual = 0.0226729, Final residual = 9.34674e-06, No Iterations 6
smoothSolver:  Solving for Uy, Initial residual = 0.0254558, Final residual = 4.71235e-06, No Iterations 7
DICPCG:  Solving for p, Initial residual = 0.0964473, Final residual = 0.00464612, No Iterations 7
time step continuity errors : sum local = 2.79052e-06, global = 5.27473e-09, cumulative = 3.58859e-07
DICPCG:  Solving for p, Initial residual = 0.025911, Final residual = 8.7135e-07, No Iterations 88
time step continuity errors : sum local = 5.57999e-10, global = -1.84926e-12, cumulative = 3.58857e-07
ExecutionTime = 0.2 s  ClockTime = 0 s

Time = 0.0875

Courant Number mean: 0.0479168 max: 2.27264
smoothSolver:  Solving for Ux, Initial residual = 0.018555, Final residual = 9.97228e-06, No Iterations 6
smoothSolver:  Solving for Uy, Initial residual = 0.0211161, Final residual = 5.69144e-06, No Iterations 7
DICPCG:  Solving for p, Initial residual = 0.0719562, Final residual = 0.00306523, No Iterations 8
time step continuity errors : sum local = 2.05472e-06, global = 2.21256e-09, cumulative = 3.6107e-07
DICPCG:  Solving for p, Initial residual = 0.0207666, Final residual = 7.44672e-07, No Iterations 87
time step continuity errors : sum local = 5.23051e-10, global = -2.91898e-12, cumulative = 3.61067e-07
ExecutionTime = 0.22 s  ClockTime = 0 s

Time = 0.1

Courant Number mean: 0.0483155 max: 2.32281
smoothSolver:  Solving for Ux, Initial residual = 0.0158076, Final residual = 4.37175e-06, No Iterations 7
smoothSolver:  Solving for Uy, Initial residual = 0.0180286, Final residual = 6.06453e-06, No Iterations 7
DICPCG:  Solving for p, Initial residual = 0.0557355, Final residual = 0.00263015, No Iterations 9
time step continuity errors : sum local = 1.91244e-06, global = 9.34911e-10, cumulative = 3.62002e-07
DICPCG:  Solving for p, Initial residual = 0.0174344, Final residual = 9.68936e-07, No Iterations 86
time step continuity errors : sum local = 7.30156e-10, global = -1.92887e-12, cumulative = 3.62e-07
ExecutionTime = 0.23 s  ClockTime = 0 s

Time = 0.1125

Courant Number mean: 0.0487039 max: 2.36045
smoothSolver:  Solving for Ux, Initial residual = 0.0138122, Final residual = 9.87197e-06, No Iterations 6
smoothSolver:  Solving for Uy, Initial residual = 0.0157429, Final residual = 6.10648e-06, No Iterations 7
DICPCG:  Solving for p, Initial residual = 0.0447007, Final residual = 0.00205088, No Iterations 11
time step continuity errors : sum local = 1.58742e-06, global = 1.6975e-10, cumulative = 3.62169e-07
DICPCG:  Solving for p, Initial residual = 0.0150433, Final residual = 8.8988e-07, No Iterations 82
time step continuity errors : sum local = 7.08555e-10, global = 2.52011e-11, cumulative = 3.62195e-07
ExecutionTime = 0.25 s  ClockTime = 0 s

Time = 0.125

Courant Number mean: 0.0490635 max: 2.38996
smoothSolver:  Solving for Ux, Initial residual = 0.012315, Final residual = 9.51424e-06, No Iterations 6
smoothSolver:  Solving for Uy, Initial residual = 0.0139948, Final residual = 6.12727e-06, No Iterations 7
DICPCG:  Solving for p, Initial residual = 0.0367122, Final residual = 0.00178672, No Iterations 12
time step continuity errors : sum local = 1.45328e-06, global = -7.59449e-10, cumulative = 3.61435e-07
DICPCG:  Solving for p, Initial residual = 0.013192, Final residual = 9.78318e-07, No Iterations 84
time step continuity errors : sum local = 8.14841e-10, global = -1.16265e-11, cumulative = 3.61424e-07
ExecutionTime = 0.27 s  ClockTime = 0 s

Time = 0.1375

Courant Number mean: 0.049396 max: 2.414
smoothSolver:  Solving for Ux, Initial residual = 0.0111543, Final residual = 9.14355e-06, No Iterations 6
smoothSolver:  Solving for Uy, Initial residual = 0.012617, Final residual = 6.20459e-06, No Iterations 7
DICPCG:  Solving for p, Initial residual = 0.0309964, Final residual = 0.00151687, No Iterations 13
time step continuity errors : sum local = 1.28705e-06, global = -1.06756e-09, cumulative = 3.60356e-07
DICPCG:  Solving for p, Initial residual = 0.0117099, Final residual = 8.60915e-07, No Iterations 85
time step continuity errors : sum local = 7.44998e-10, global = -1.91055e-11, cumulative = 3.60337e-07
ExecutionTime = 0.28 s  ClockTime = 0 s

Time = 0.15

Courant Number mean: 0.0497083 max: 2.43413
smoothSolver:  Solving for Ux, Initial residual = 0.0102148, Final residual = 8.77341e-06, No Iterations 6
smoothSolver:  Solving for Uy, Initial residual = 0.0115078, Final residual = 6.19755e-06, No Iterations 7
DICPCG:  Solving for p, Initial residual = 0.0270237, Final residual = 0.00124683, No Iterations 15
time step continuity errors : sum local = 1.0958e-06, global = -3.43653e-10, cumulative = 3.59993e-07
DICPCG:  Solving for p, Initial residual = 0.0105948, Final residual = 9.79557e-07, No Iterations 84
time step continuity errors : sum local = 8.75302e-10, global = -3.38058e-11, cumulative = 3.59959e-07
ExecutionTime = 0.3 s  ClockTime = 0 s

Time = 0.1625

Courant Number mean: 0.0500058 max: 2.45138
smoothSolver:  Solving for Ux, Initial residual = 0.00943133, Final residual = 8.4249e-06, No Iterations 6
smoothSolver:  Solving for Uy, Initial residual = 0.0105863, Final residual = 6.12736e-06, No Iterations 7
DICPCG:  Solving for p, Initial residual = 0.0240377, Final residual = 0.00100164, No Iterations 16
time step continuity errors : sum local = 9.06959e-07, global = 1.15243e-09, cumulative = 3.61112e-07
DICPCG:  Solving for p, Initial residual = 0.00961739, Final residual = 8.65797e-07, No Iterations 82
time step continuity errors : sum local = 7.95209e-10, global = -2.56968e-11, cumulative = 3.61086e-07
ExecutionTime = 0.32 s  ClockTime = 0 s

Time = 0.175

Courant Number mean: 0.0502944 max: 2.4664
smoothSolver:  Solving for Ux, Initial residual = 0.00877373, Final residual = 8.07676e-06, No Iterations 6
smoothSolver:  Solving for Uy, Initial residual = 0.00980872, Final residual = 6.0354e-06, No Iterations 7
DICPCG:  Solving for p, Initial residual = 0.0216619, Final residual = 0.000971237, No Iterations 16
time step continuity errors : sum local = 9.02392e-07, global = 1.7767e-09, cumulative = 3.62863e-07
DICPCG:  Solving for p, Initial residual = 0.00892711, Final residual = 8.69786e-07, No Iterations 77
time step continuity errors : sum local = 8.18308e-10, global = 6.77888e-12, cumulative = 3.6287e-07
ExecutionTime = 0.33 s  ClockTime = 0 s

Time = 0.1875

Courant Number mean: 0.0505799 max: 2.47966
smoothSolver:  Solving for Ux, Initial residual = 0.00820847, Final residual = 7.75012e-06, No Iterations 6
smoothSolver:  Solving for Uy, Initial residual = 0.00914516, Final residual = 5.92948e-06, No Iterations 7
DICPCG:  Solving for p, Initial residual = 0.0197401, Final residual = 0.000920853, No Iterations 16
time step continuity errors : sum local = 8.75209e-07, global = 1.77881e-09, cumulative = 3.64648e-07
DICPCG:  Solving for p, Initial residual = 0.0083182, Final residual = 9.26845e-07, No Iterations 77
time step continuity errors : sum local = 8.90759e-10, global = 3.53681e-11, cumulative = 3.64684e-07
ExecutionTime = 0.35 s  ClockTime = 0 s

Time = 0.2

Courant Number mean: 0.0508632 max: 2.49148
smoothSolver:  Solving for Ux, Initial residual = 0.0077125, Final residual = 7.44442e-06, No Iterations 6
smoothSolver:  Solving for Uy, Initial residual = 0.00857079, Final residual = 5.8117e-06, No Iterations 7
DICPCG:  Solving for p, Initial residual = 0.0181555, Final residual = 0.000887927, No Iterations 16
time step continuity errors : sum local = 8.61172e-07, global = 1.68581e-09, cumulative = 3.6637e-07
DICPCG:  Solving for p, Initial residual = 0.00774576, Final residual = 8.74414e-07, No Iterations 83
time step continuity errors : sum local = 8.566e-10, global = 1.27969e-11, cumulative = 3.66382e-07
ExecutionTime = 0.36 s  ClockTime = 0 s

Time = 0.2125

Courant Number mean: 0.0511361 max: 2.50212
smoothSolver:  Solving for Ux, Initial residual = 0.0072742, Final residual = 7.15289e-06, No Iterations 6
smoothSolver:  Solving for Uy, Initial residual = 0.00806723, Final residual = 9.97991e-06, No Iterations 6
DICPCG:  Solving for p, Initial residual = 0.0168442, Final residual = 0.000735524, No Iterations 17
time step continuity errors : sum local = 7.26714e-07, global = 3.32396e-09, cumulative = 3.69706e-07
DICPCG:  Solving for p, Initial residual = 0.0071869, Final residual = 9.65943e-07, No Iterations 76
time step continuity errors : sum local = 9.63188e-10, global = 2.31765e-11, cumulative = 3.6973e-07
ExecutionTime = 0.38 s  ClockTime = 1 s

Time = 0.225

Courant Number mean: 0.0514005 max: 2.51179
smoothSolver:  Solving for Ux, Initial residual = 0.0068838, Final residual = 6.88588e-06, No Iterations 6
smoothSolver:  Solving for Uy, Initial residual = 0.00762087, Final residual = 9.55089e-06, No Iterations 6
DICPCG:  Solving for p, Initial residual = 0.0156782, Final residual = 0.000706455, No Iterations 17
time step continuity errors : sum local = 7.10005e-07, global = 4.10804e-09, cumulative = 3.73838e-07
DICPCG:  Solving for p, Initial residual = 0.00674893, Final residual = 9.90341e-07, No Iterations 76
time step continuity errors : sum local = 1.00399e-09, global = 3.35014e-11, cumulative = 3.73871e-07
ExecutionTime = 0.39 s  ClockTime = 1 s

Time = 0.2375

Courant Number mean: 0.051657 max: 2.52059
smoothSolver:  Solving for Ux, Initial residual = 0.00653351, Final residual = 6.62985e-06, No Iterations 6
smoothSolver:  Solving for Uy, Initial residual = 0.00722724, Final residual = 9.21177e-06, No Iterations 6
DICPCG:  Solving for p, Initial residual = 0.0146983, Final residual = 0.000682282, No Iterations 17
time step continuity errors : sum local = 6.96669e-07, global = 4.0737e-09, cumulative = 3.77945e-07
DICPCG:  Solving for p, Initial residual = 0.00636051, Final residual = 8.62502e-07, No Iterations 77
time step continuity errors : sum local = 8.87844e-10, global = 4.81129e-11, cumulative = 3.77993e-07
ExecutionTime = 0.42 s  ClockTime = 1 s

Time = 0.25

Courant Number mean: 0.0519072 max: 2.52866
smoothSolver:  Solving for Ux, Initial residual = 0.00621528, Final residual = 6.3812e-06, No Iterations 6
smoothSolver:  Solving for Uy, Initial residual = 0.00687425, Final residual = 8.90468e-06, No Iterations 6
DICPCG:  Solving for p, Initial residual = 0.0138458, Final residual = 0.000658042, No Iterations 17
time step continuity errors : sum local = 6.81822e-07, global = 4.12922e-09, cumulative = 3.82122e-07
DICPCG:  Solving for p, Initial residual = 0.00601077, Final residual = 8.83487e-07, No Iterations 77
time step continuity errors : sum local = 9.22236e-10, global = 4.93115e-11, cumulative = 3.82171e-07
ExecutionTime = 0.46 s  ClockTime = 1 s

Time = 0.2625

Courant Number mean: 0.0521525 max: 2.53612
smoothSolver:  Solving for Ux, Initial residual = 0.00592497, Final residual = 6.14204e-06, No Iterations 6
smoothSolver:  Solving for Uy, Initial residual = 0.00655609, Final residual = 8.61464e-06, No Iterations 6
DICPCG:  Solving for p, Initial residual = 0.0130723, Final residual = 0.000636963, No Iterations 17
time step continuity errors : sum local = 6.68926e-07, global = 4.21649e-09, cumulative = 3.86388e-07
DICPCG:  Solving for p, Initial residual = 0.00569423, Final residual = 9.80992e-07, No Iterations 76
time step continuity errors : sum local = 1.03731e-09, global = 3.75605e-11, cumulative = 3.86425e-07
ExecutionTime = 0.48 s  ClockTime = 1 s

Time = 0.275

Courant Number mean: 0.0523937 max: 2.54302
smoothSolver:  Solving for Ux, Initial residual = 0.00565915, Final residual = 5.9151e-06, No Iterations 6
smoothSolver:  Solving for Uy, Initial residual = 0.00626746, Final residual = 8.33775e-06, No Iterations 6
DICPCG:  Solving for p, Initial residual = 0.0123684, Final residual = 0.000616355, No Iterations 17
time step continuity errors : sum local = 6.55432e-07, global = 4.29415e-09, cumulative = 3.9072e-07
DICPCG:  Solving for p, Initial residual = 0.00541003, Final residual = 9.22081e-07, No Iterations 76
time step continuity errors : sum local = 9.86812e-10, global = 3.22437e-11, cumulative = 3.90752e-07
ExecutionTime = 0.5 s  ClockTime = 1 s

Time = 0.2875

Courant Number mean: 0.0526331 max: 2.54944
smoothSolver:  Solving for Ux, Initial residual = 0.00541673, Final residual = 9.63957e-06, No Iterations 5
smoothSolver:  Solving for Uy, Initial residual = 0.00600463, Final residual = 8.07556e-06, No Iterations 6
DICPCG:  Solving for p, Initial residual = 0.0117107, Final residual = 0.000493811, No Iterations 18
time step continuity errors : sum local = 5.31297e-07, global = 6.43714e-09, cumulative = 3.97189e-07
DICPCG:  Solving for p, Initial residual = 0.00506461, Final residual = 7.96486e-07, No Iterations 75
time step continuity errors : sum local = 8.62091e-10, global = -6.65143e-12, cumulative = 3.97182e-07
ExecutionTime = 0.51 s  ClockTime = 1 s

Time = 0.3

Courant Number mean: 0.0528726 max: 2.55532
smoothSolver:  Solving for Ux, Initial residual = 0.00519257, Final residual = 9.45845e-06, No Iterations 5
smoothSolver:  Solving for Uy, Initial residual = 0.00576514, Final residual = 7.81673e-06, No Iterations 6
DICPCG:  Solving for p, Initial residual = 0.0111116, Final residual = 0.000479761, No Iterations 18
time step continuity errors : sum local = 5.21886e-07, global = 6.67747e-09, cumulative = 4.0386e-07
DICPCG:  Solving for p, Initial residual = 0.00483403, Final residual = 7.56043e-07, No Iterations 75
time step continuity errors : sum local = 8.27147e-10, global = -6.33434e-12, cumulative = 4.03853e-07
ExecutionTime = 0.53 s  ClockTime = 1 s

Time = 0.3125

Courant Number mean: 0.0531076 max: 2.56087
smoothSolver:  Solving for Ux, Initial residual = 0.00498399, Final residual = 9.08242e-06, No Iterations 5
smoothSolver:  Solving for Uy, Initial residual = 0.00554685, Final residual = 7.58419e-06, No Iterations 6
DICPCG:  Solving for p, Initial residual = 0.0105686, Final residual = 0.000461678, No Iterations 18
time step continuity errors : sum local = 5.07466e-07, global = 6.76002e-09, cumulative = 4.10613e-07
DICPCG:  Solving for p, Initial residual = 0.00461438, Final residual = 7.18492e-07, No Iterations 75
time step continuity errors : sum local = 7.93998e-10, global = -6.77426e-12, cumulative = 4.10607e-07
ExecutionTime = 0.54 s  ClockTime = 1 s

Time = 0.325

Courant Number mean: 0.0533382 max: 2.5661
smoothSolver:  Solving for Ux, Initial residual = 0.00479043, Final residual = 8.6933e-06, No Iterations 5
smoothSolver:  Solving for Uy, Initial residual = 0.00534734, Final residual = 7.36617e-06, No Iterations 6
DICPCG:  Solving for p, Initial residual = 0.0100684, Final residual = 0.000445498, No Iterations 18
time step continuity errors : sum local = 4.94478e-07, global = 6.79765e-09, cumulative = 4.17404e-07
DICPCG:  Solving for p, Initial residual = 0.00441866, Final residual = 9.25946e-07, No Iterations 74
time step continuity errors : sum local = 1.03293e-09, global = -2.10073e-11, cumulative = 4.17383e-07
ExecutionTime = 0.56 s  ClockTime = 1 s

Time = 0.3375

Courant Number mean: 0.0535645 max: 2.57103
smoothSolver:  Solving for Ux, Initial residual = 0.00460949, Final residual = 8.33934e-06, No Iterations 5
smoothSolver:  Solving for Uy, Initial residual = 0.00516405, Final residual = 7.16034e-06, No Iterations 6
DICPCG:  Solving for p, Initial residual = 0.00960707, Final residual = 0.000427301, No Iterations 18
time step continuity errors : sum local = 4.78653e-07, global = 6.88546e-09, cumulative = 4.24269e-07
DICPCG:  Solving for p, Initial residual = 0.00423079, Final residual = 8.37818e-07, No Iterations 74
time step continuity errors : sum local = 9.42951e-10, global = -2.64659e-11, cumulative = 4.24242e-07
ExecutionTime = 0.58 s  ClockTime = 1 s

Time = 0.35

Courant Number mean: 0.0537863 max: 2.57569
smoothSolver:  Solving for Ux, Initial residual = 0.0044411, Final residual = 8.01637e-06, No Iterations 5
smoothSolver:  Solving for Uy, Initial residual = 0.00499552, Final residual = 6.9707e-06, No Iterations 6
DICPCG:  Solving for p, Initial residual = 0.00917962, Final residual = 0.000423927, No Iterations 18
time step continuity errors : sum local = 4.79004e-07, global = 6.85499e-09, cumulative = 4.31097e-07
DICPCG:  Solving for p, Initial residual = 0.00407506, Final residual = 8.66501e-07, No Iterations 74
time step continuity errors : sum local = 9.8348e-10, global = -2.3536e-11, cumulative = 4.31074e-07
ExecutionTime = 0.59 s  ClockTime = 1 s

Time = 0.3625

Courant Number mean: 0.0540047 max: 2.58009
smoothSolver:  Solving for Ux, Initial residual = 0.00428353, Final residual = 7.72078e-06, No Iterations 5
smoothSolver:  Solving for Uy, Initial residual = 0.00484049, Final residual = 6.79507e-06, No Iterations 6
DICPCG:  Solving for p, Initial residual = 0.00879139, Final residual = 0.00040877, No Iterations 18
time step continuity errors : sum local = 4.6568e-07, global = 6.91423e-09, cumulative = 4.37988e-07
DICPCG:  Solving for p, Initial residual = 0.00391678, Final residual = 9.17892e-07, No Iterations 74
time step continuity errors : sum local = 1.05017e-09, global = -1.73467e-11, cumulative = 4.37971e-07
ExecutionTime = 0.61 s  ClockTime = 1 s

Time = 0.375

Courant Number mean: 0.0542199 max: 2.58426
smoothSolver:  Solving for Ux, Initial residual = 0.00413665, Final residual = 7.44659e-06, No Iterations 5
smoothSolver:  Solving for Uy, Initial residual = 0.00469773, Final residual = 6.62985e-06, No Iterations 6
DICPCG:  Solving for p, Initial residual = 0.00843893, Final residual = 0.000392544, No Iterations 18
time step continuity errors : sum local = 4.50689e-07, global = 6.99987e-09, cumulative = 4.44971e-07
DICPCG:  Solving for p, Initial residual = 0.00376503, Final residual = 9.52941e-07, No Iterations 74
time step continuity errors : sum local = 1.09853e-09, global = -1.29424e-11, cumulative = 4.44958e-07
ExecutionTime = 0.62 s  ClockTime = 1 s

Time = 0.3875

Courant Number mean: 0.0544333 max: 2.58822
smoothSolver:  Solving for Ux, Initial residual = 0.00399932, Final residual = 7.1892e-06, No Iterations 5
smoothSolver:  Solving for Uy, Initial residual = 0.00456601, Final residual = 9.97324e-06, No Iterations 5
DICPCG:  Solving for p, Initial residual = 0.00807574, Final residual = 0.000384504, No Iterations 18
time step continuity errors : sum local = 4.44687e-07, global = 6.97236e-09, cumulative = 4.5193e-07
DICPCG:  Solving for p, Initial residual = 0.00360312, Final residual = 8.68431e-07, No Iterations 74
time step continuity errors : sum local = 1.0082e-09, global = -2.09401e-11, cumulative = 4.51909e-07
ExecutionTime = 0.64 s  ClockTime = 1 s

Time = 0.4

Courant Number mean: 0.054644 max: 2.59198
smoothSolver:  Solving for Ux, Initial residual = 0.00387175, Final residual = 6.93834e-06, No Iterations 5
smoothSolver:  Solving for Uy, Initial residual = 0.00444389, Final residual = 9.9667e-06, No Iterations 5
DICPCG:  Solving for p, Initial residual = 0.00777961, Final residual = 0.000370042, No Iterations 18
time step continuity errors : sum local = 4.30952e-07, global = 6.9996e-09, cumulative = 4.58909e-07
DICPCG:  Solving for p, Initial residual = 0.00347835, Final residual = 8.66594e-07, No Iterations 74
time step continuity errors : sum local = 1.01292e-09, global = -1.98089e-11, cumulative = 4.58889e-07
ExecutionTime = 0.66 s  ClockTime = 1 s

Time = 0.4125

Courant Number mean: 0.0548545 max: 2.59557
smoothSolver:  Solving for Ux, Initial residual = 0.00375419, Final residual = 6.69225e-06, No Iterations 5
smoothSolver:  Solving for Uy, Initial residual = 0.0043298, Final residual = 9.71814e-06, No Iterations 5
DICPCG:  Solving for p, Initial residual = 0.00749719, Final residual = 0.000367543, No Iterations 18
time step continuity errors : sum local = 4.30889e-07, global = 6.97601e-09, cumulative = 4.65865e-07
DICPCG:  Solving for p, Initial residual = 0.0033713, Final residual = 9.27039e-07, No Iterations 74
time step continuity errors : sum local = 1.09058e-09, global = -1.51609e-11, cumulative = 4.6585e-07
ExecutionTime = 0.67 s  ClockTime = 1 s

Time = 0.425

Courant Number mean: 0.0550642 max: 2.59901
smoothSolver:  Solving for Ux, Initial residual = 0.00364282, Final residual = 6.4726e-06, No Iterations 5
smoothSolver:  Solving for Uy, Initial residual = 0.00422242, Final residual = 9.44335e-06, No Iterations 5
DICPCG:  Solving for p, Initial residual = 0.00723388, Final residual = 0.000354484, No Iterations 18
time step continuity errors : sum local = 4.18212e-07, global = 7.03313e-09, cumulative = 4.72883e-07
DICPCG:  Solving for p, Initial residual = 0.00325662, Final residual = 9.43587e-07, No Iterations 74
time step continuity errors : sum local = 1.11691e-09, global = -1.25912e-11, cumulative = 4.7287e-07
ExecutionTime = 0.68 s  ClockTime = 1 s

Time = 0.4375

Courant Number mean: 0.0552702 max: 2.60229
smoothSolver:  Solving for Ux, Initial residual = 0.00353753, Final residual = 9.84511e-06, No Iterations 4
smoothSolver:  Solving for Uy, Initial residual = 0.00412224, Final residual = 9.19211e-06, No Iterations 5
DICPCG:  Solving for p, Initial residual = 0.0069982, Final residual = 0.000344029, No Iterations 18
time step continuity errors : sum local = 4.08357e-07, global = 7.01288e-09, cumulative = 4.79883e-07
DICPCG:  Solving for p, Initial residual = 0.0031641, Final residual = 9.39122e-07, No Iterations 74
time step continuity errors : sum local = 1.11825e-09, global = -1.78855e-11, cumulative = 4.79865e-07
ExecutionTime = 0.7 s  ClockTime = 1 s

Time = 0.45

Courant Number mean: 0.0554731 max: 2.60556
smoothSolver:  Solving for Ux, Initial residual = 0.0034375, Final residual = 8.82953e-06, No Iterations 4
smoothSolver:  Solving for Uy, Initial residual = 0.00402816, Final residual = 9.01363e-06, No Iterations 5
DICPCG:  Solving for p, Initial residual = 0.00676636, Final residual = 0.000332405, No Iterations 18
time step continuity errors : sum local = 3.96846e-07, global = 7.01051e-09, cumulative = 4.86876e-07
DICPCG:  Solving for p, Initial residual = 0.00306819, Final residual = 9.21005e-07, No Iterations 74
time step continuity errors : sum local = 1.10288e-09, global = -1.69832e-11, cumulative = 4.86859e-07
ExecutionTime = 0.72 s  ClockTime = 1 s

Time = 0.4625

Courant Number mean: 0.055674 max: 2.60864
smoothSolver:  Solving for Ux, Initial residual = 0.00334343, Final residual = 8.47369e-06, No Iterations 4
smoothSolver:  Solving for Uy, Initial residual = 0.00393964, Final residual = 8.81141e-06, No Iterations 5
DICPCG:  Solving for p, Initial residual = 0.00654995, Final residual = 0.000245442, No Iterations 19
time step continuity errors : sum local = 2.9466e-07, global = 8.52116e-09, cumulative = 4.9538e-07
DICPCG:  Solving for p, Initial residual = 0.00295106, Final residual = 9.28239e-07, No Iterations 74
time step continuity errors : sum local = 1.11762e-09, global = -1.74748e-11, cumulative = 4.95362e-07
ExecutionTime = 0.74 s  ClockTime = 1 s

Time = 0.475

Courant Number mean: 0.0558718 max: 2.61157
smoothSolver:  Solving for Ux, Initial residual = 0.00325393, Final residual = 8.23031e-06, No Iterations 4
smoothSolver:  Solving for Uy, Initial residual = 0.00385613, Final residual = 8.61848e-06, No Iterations 5
DICPCG:  Solving for p, Initial residual = 0.00634588, Final residual = 0.00023821, No Iterations 19
time step continuity errors : sum local = 2.8752e-07, global = 8.15096e-09, cumulative = 5.03513e-07
DICPCG:  Solving for p, Initial residual = 0.0028613, Final residual = 9.06171e-07, No Iterations 74
time step continuity errors : sum local = 1.09683e-09, global = -1.77032e-11, cumulative = 5.03496e-07
ExecutionTime = 0.75 s  ClockTime = 1 s

Time = 0.4875

Courant Number mean: 0.056067 max: 2.61438
smoothSolver:  Solving for Ux, Initial residual = 0.00316885, Final residual = 7.9898e-06, No Iterations 4
smoothSolver:  Solving for Uy, Initial residual = 0.00377712, Final residual = 8.43658e-06, No Iterations 5
DICPCG:  Solving for p, Initial residual = 0.00615519, Final residual = 0.00023556, No Iterations 19
time step continuity errors : sum local = 2.858e-07, global = 8.32985e-09, cumulative = 5.11826e-07
DICPCG:  Solving for p, Initial residual = 0.00278224, Final residual = 8.92109e-07, No Iterations 74
time step continuity errors : sum local = 1.08532e-09, global = -1.76909e-11, cumulative = 5.11808e-07
ExecutionTime = 0.77 s  ClockTime = 1 s

Time = 0.5

Courant Number mean: 0.0562598 max: 2.61709
smoothSolver:  Solving for Ux, Initial residual = 0.00308806, Final residual = 7.74774e-06, No Iterations 4
smoothSolver:  Solving for Uy, Initial residual = 0.00370222, Final residual = 8.26268e-06, No Iterations 5
DICPCG:  Solving for p, Initial residual = 0.00597614, Final residual = 0.000230269, No Iterations 19
time step continuity errors : sum local = 2.80777e-07, global = 8.11125e-09, cumulative = 5.19919e-07
DICPCG:  Solving for p, Initial residual = 0.00270186, Final residual = 8.39908e-07, No Iterations 74
time step continuity errors : sum local = 1.02681e-09, global = -1.66928e-11, cumulative = 5.19902e-07
ExecutionTime = 0.81 s  ClockTime = 1 s

Time = 0.5125

Courant Number mean: 0.0564511 max: 2.61971
smoothSolver:  Solving for Ux, Initial residual = 0.00301169, Final residual = 7.51332e-06, No Iterations 4
smoothSolver:  Solving for Uy, Initial residual = 0.00363091, Final residual = 8.09646e-06, No Iterations 5
DICPCG:  Solving for p, Initial residual = 0.00580487, Final residual = 0.000227219, No Iterations 19
time step continuity errors : sum local = 2.78387e-07, global = 8.26759e-09, cumulative = 5.2817e-07
DICPCG:  Solving for p, Initial residual = 0.00262991, Final residual = 8.53212e-07, No Iterations 74
time step continuity errors : sum local = 1.04797e-09, global = -1.72651e-11, cumulative = 5.28153e-07
ExecutionTime = 0.82 s  ClockTime = 1 s

Time = 0.525

Courant Number mean: 0.0566407 max: 2.62224
smoothSolver:  Solving for Ux, Initial residual = 0.00294036, Final residual = 7.29174e-06, No Iterations 4
smoothSolver:  Solving for Uy, Initial residual = 0.00356335, Final residual = 7.93758e-06, No Iterations 5
DICPCG:  Solving for p, Initial residual = 0.005642, Final residual = 0.000222721, No Iterations 19
time step continuity errors : sum local = 2.74133e-07, global = 8.06695e-09, cumulative = 5.3622e-07
DICPCG:  Solving for p, Initial residual = 0.00255848, Final residual = 8.33306e-07, No Iterations 74
time step continuity errors : sum local = 1.02813e-09, global = -1.68584e-11, cumulative = 5.36203e-07
ExecutionTime = 0.84 s  ClockTime = 1 s

Time = 0.5375

Courant Number mean: 0.0568286 max: 2.6247
smoothSolver:  Solving for Ux, Initial residual = 0.00287275, Final residual = 7.08239e-06, No Iterations 4
smoothSolver:  Solving for Uy, Initial residual = 0.00349924, Final residual = 7.7868e-06, No Iterations 5
DICPCG:  Solving for p, Initial residual = 0.00548625, Final residual = 0.000219189, No Iterations 19
time step continuity errors : sum local = 2.70981e-07, global = 8.19119e-09, cumulative = 5.44394e-07
DICPCG:  Solving for p, Initial residual = 0.00249195, Final residual = 8.21191e-07, No Iterations 74
time step continuity errors : sum local = 1.01757e-09, global = -1.6965e-11, cumulative = 5.44377e-07
ExecutionTime = 0.85 s  ClockTime = 1 s

Time = 0.55

Courant Number mean: 0.0570163 max: 2.62708
smoothSolver:  Solving for Ux, Initial residual = 0.00280836, Final residual = 6.88525e-06, No Iterations 4
smoothSolver:  Solving for Uy, Initial residual = 0.00343837, Final residual = 7.64279e-06, No Iterations 5
DICPCG:  Solving for p, Initial residual = 0.00533821, Final residual = 0.000215311, No Iterations 19
time step continuity errors : sum local = 2.6732e-07, global = 7.99885e-09, cumulative = 5.52376e-07
DICPCG:  Solving for p, Initial residual = 0.00242801, Final residual = 9.71897e-07, No Iterations 73
time step continuity errors : sum local = 1.20936e-09, global = -2.22294e-11, cumulative = 5.52354e-07
ExecutionTime = 0.87 s  ClockTime = 1 s

Time = 0.5625

Courant Number mean: 0.0572035 max: 2.62939
smoothSolver:  Solving for Ux, Initial residual = 0.00274719, Final residual = 6.69919e-06, No Iterations 4
smoothSolver:  Solving for Uy, Initial residual = 0.00338052, Final residual = 7.50553e-06, No Iterations 5
DICPCG:  Solving for p, Initial residual = 0.00519654, Final residual = 0.000212025, No Iterations 19
time step continuity errors : sum local = 2.64325e-07, global = 8.10724e-09, cumulative = 5.60461e-07
DICPCG:  Solving for p, Initial residual = 0.0023675, Final residual = 9.42446e-07, No Iterations 73
time step continuity errors : sum local = 1.17745e-09, global = -2.17631e-11, cumulative = 5.60439e-07
ExecutionTime = 0.89 s  ClockTime = 1 s

Time = 0.575

Courant Number mean: 0.0573882 max: 2.63164
smoothSolver:  Solving for Ux, Initial residual = 0.00268928, Final residual = 6.52493e-06, No Iterations 4
smoothSolver:  Solving for Uy, Initial residual = 0.00332567, Final residual = 7.3741e-06, No Iterations 5
DICPCG:  Solving for p, Initial residual = 0.00506151, Final residual = 0.000208446, No Iterations 19
time step continuity errors : sum local = 2.60904e-07, global = 7.91911e-09, cumulative = 5.68358e-07
DICPCG:  Solving for p, Initial residual = 0.00230908, Final residual = 9.24947e-07, No Iterations 73
time step continuity errors : sum local = 1.16016e-09, global = -2.06111e-11, cumulative = 5.68338e-07
ExecutionTime = 0.91 s  ClockTime = 1 s

Time = 0.5875

Courant Number mean: 0.0575707 max: 2.63383
smoothSolver:  Solving for Ux, Initial residual = 0.00263395, Final residual = 6.3616e-06, No Iterations 4
smoothSolver:  Solving for Uy, Initial residual = 0.00327469, Final residual = 7.24822e-06, No Iterations 5
DICPCG:  Solving for p, Initial residual = 0.00493152, Final residual = 0.000205238, No Iterations 19
time step continuity errors : sum local = 2.57898e-07, global = 8.01981e-09, cumulative = 5.76357e-07
DICPCG:  Solving for p, Initial residual = 0.00225343, Final residual = 9.24836e-07, No Iterations 73
time step continuity errors : sum local = 1.16452e-09, global = -1.90256e-11, cumulative = 5.76338e-07
ExecutionTime = 0.92 s  ClockTime = 1 s

Time = 0.6

Courant Number mean: 0.0577514 max: 2.63597
smoothSolver:  Solving for Ux, Initial residual = 0.00258104, Final residual = 6.20835e-06, No Iterations 4
smoothSolver:  Solving for Uy, Initial residual = 0.00322674, Final residual = 7.12803e-06, No Iterations 5
DICPCG:  Solving for p, Initial residual = 0.00480726, Final residual = 0.000201851, No Iterations 19
time step continuity errors : sum local = 2.54615e-07, global = 7.83531e-09, cumulative = 5.84174e-07
DICPCG:  Solving for p, Initial residual = 0.00219987, Final residual = 9.27464e-07, No Iterations 73
time step continuity errors : sum local = 1.17226e-09, global = -1.66588e-11, cumulative = 5.84157e-07
ExecutionTime = 0.93 s  ClockTime = 1 s

Time = 0.6125

Courant Number mean: 0.0579296 max: 2.63805
smoothSolver:  Solving for Ux, Initial residual = 0.00253052, Final residual = 6.06361e-06, No Iterations 4
smoothSolver:  Solving for Uy, Initial residual = 0.0031809, Final residual = 7.01257e-06, No Iterations 5
DICPCG:  Solving for p, Initial residual = 0.00468871, Final residual = 0.000198714, No Iterations 19
time step continuity errors : sum local = 2.51593e-07, global = 7.92836e-09, cumulative = 5.92085e-07
DICPCG:  Solving for p, Initial residual = 0.0021486, Final residual = 9.52952e-07, No Iterations 73
time step continuity errors : sum local = 1.20891e-09, global = -1.39666e-11, cumulative = 5.92071e-07
ExecutionTime = 0.95 s  ClockTime = 1 s

Time = 0.625

Courant Number mean: 0.058106 max: 2.64008
smoothSolver:  Solving for Ux, Initial residual = 0.00248246, Final residual = 5.92608e-06, No Iterations 4
smoothSolver:  Solving for Uy, Initial residual = 0.00313692, Final residual = 6.90152e-06, No Iterations 5
DICPCG:  Solving for p, Initial residual = 0.00457559, Final residual = 0.000195471, No Iterations 19
time step continuity errors : sum local = 2.48392e-07, global = 7.74786e-09, cumulative = 5.99819e-07
DICPCG:  Solving for p, Initial residual = 0.00209909, Final residual = 9.66342e-07, No Iterations 73
time step continuity errors : sum local = 1.23031e-09, global = -1.09567e-11, cumulative = 5.99808e-07
ExecutionTime = 0.96 s  ClockTime = 1 s

Time = 0.6375

Courant Number mean: 0.0582806 max: 2.64206
smoothSolver:  Solving for Ux, Initial residual = 0.00243628, Final residual = 5.79561e-06, No Iterations 4
smoothSolver:  Solving for Uy, Initial residual = 0.00309448, Final residual = 6.7945e-06, No Iterations 5
DICPCG:  Solving for p, Initial residual = 0.00446726, Final residual = 0.000192404, No Iterations 19
time step continuity errors : sum local = 2.45365e-07, global = 7.83421e-09, cumulative = 6.07643e-07
DICPCG:  Solving for p, Initial residual = 0.0020518, Final residual = 8.30118e-07, No Iterations 74
time step continuity errors : sum local = 1.0606e-09, global = -3.5967e-12, cumulative = 6.07639e-07
ExecutionTime = 0.99 s  ClockTime = 1 s

Time = 0.65

Courant Number mean: 0.0584538 max: 2.644
smoothSolver:  Solving for Ux, Initial residual = 0.00239208, Final residual = 9.99285e-06, No Iterations 3
smoothSolver:  Solving for Uy, Initial residual = 0.00305403, Final residual = 6.69153e-06, No Iterations 5
DICPCG:  Solving for p, Initial residual = 0.00437235, Final residual = 0.000188824, No Iterations 19
time step continuity errors : sum local = 2.41627e-07, global = 7.64878e-09, cumulative = 6.15288e-07
DICPCG:  Solving for p, Initial residual = 0.00204008, Final residual = 9.19221e-07, No Iterations 73
time step continuity errors : sum local = 1.1784e-09, global = 1.39016e-12, cumulative = 6.15289e-07
ExecutionTime = 1 s  ClockTime = 1 s

Time = 0.6625

Courant Number mean: 0.0586253 max: 2.64579
smoothSolver:  Solving for Ux, Initial residual = 0.0023502, Final residual = 6.38339e-06, No Iterations 4
smoothSolver:  Solving for Uy, Initial residual = 0.00301526, Final residual = 9.90054e-06, No Iterations 4
DICPCG:  Solving for p, Initial residual = 0.00432298, Final residual = 0.000189777, No Iterations 19
time step continuity errors : sum local = 2.437e-07, global = 7.83915e-09, cumulative = 6.23128e-07
DICPCG:  Solving for p, Initial residual = 0.00201395, Final residual = 8.25755e-07, No Iterations 73
time step continuity errors : sum local = 1.06229e-09, global = -1.19331e-11, cumulative = 6.23116e-07
ExecutionTime = 1.01 s  ClockTime = 1 s

Time = 0.675

Courant Number mean: 0.0587962 max: 2.6477
smoothSolver:  Solving for Ux, Initial residual = 0.00230949, Final residual = 9.7217e-06, No Iterations 3
smoothSolver:  Solving for Uy, Initial residual = 0.0029774, Final residual = 9.24696e-06, No Iterations 4
DICPCG:  Solving for p, Initial residual = 0.00422189, Final residual = 0.000185337, No Iterations 19
time step continuity errors : sum local = 2.38774e-07, global = 7.58998e-09, cumulative = 6.30706e-07
DICPCG:  Solving for p, Initial residual = 0.00198372, Final residual = 9.26434e-07, No Iterations 73
time step continuity errors : sum local = 1.19559e-09, global = -2.17708e-11, cumulative = 6.30685e-07
ExecutionTime = 1.03 s  ClockTime = 1 s

Time = 0.6875

Courant Number mean: 0.0589653 max: 2.64944
smoothSolver:  Solving for Ux, Initial residual = 0.00227143, Final residual = 6.18971e-06, No Iterations 4
smoothSolver:  Solving for Uy, Initial residual = 0.00294125, Final residual = 9.03054e-06, No Iterations 4
DICPCG:  Solving for p, Initial residual = 0.00412198, Final residual = 0.000183063, No Iterations 19
time step continuity errors : sum local = 2.36608e-07, global = 7.74867e-09, cumulative = 6.38433e-07
DICPCG:  Solving for p, Initial residual = 0.0019477, Final residual = 9.53047e-07, No Iterations 72
time step continuity errors : sum local = 1.23389e-09, global = -1.61325e-11, cumulative = 6.38417e-07
ExecutionTime = 1.04 s  ClockTime = 1 s

Time = 0.7

Courant Number mean: 0.059135 max: 2.6513
smoothSolver:  Solving for Ux, Initial residual = 0.00223409, Final residual = 9.31862e-06, No Iterations 3
smoothSolver:  Solving for Uy, Initial residual = 0.00290594, Final residual = 8.96057e-06, No Iterations 4
DICPCG:  Solving for p, Initial residual = 0.00404494, Final residual = 0.000178676, No Iterations 19
time step continuity errors : sum local = 2.31649e-07, global = 7.49819e-09, cumulative = 6.45915e-07
DICPCG:  Solving for p, Initial residual = 0.00190154, Final residual = 9.53342e-07, No Iterations 73
time step continuity errors : sum local = 1.238e-09, global = -1.76852e-11, cumulative = 6.45898e-07
ExecutionTime = 1.06 s  ClockTime = 1 s

Time = 0.7125

Courant Number mean: 0.0593033 max: 2.65299
smoothSolver:  Solving for Ux, Initial residual = 0.0022001, Final residual = 5.97204e-06, No Iterations 4
smoothSolver:  Solving for Uy, Initial residual = 0.0028724, Final residual = 8.80676e-06, No Iterations 4
DICPCG:  Solving for p, Initial residual = 0.00394788, Final residual = 0.000177293, No Iterations 19
time step continuity errors : sum local = 2.30565e-07, global = 7.66232e-09, cumulative = 6.5356e-07
DICPCG:  Solving for p, Initial residual = 0.00186881, Final residual = 9.16402e-07, No Iterations 66
time step continuity errors : sum local = 1.19367e-09, global = -4.68555e-11, cumulative = 6.53513e-07
ExecutionTime = 1.08 s  ClockTime = 1 s

Time = 0.725

Courant Number mean: 0.0594696 max: 2.65478
smoothSolver:  Solving for Ux, Initial residual = 0.00216564, Final residual = 8.9435e-06, No Iterations 3
smoothSolver:  Solving for Uy, Initial residual = 0.00283943, Final residual = 8.71802e-06, No Iterations 4
DICPCG:  Solving for p, Initial residual = 0.00387756, Final residual = 0.000172658, No Iterations 19
time step continuity errors : sum local = 2.25203e-07, global = 7.39381e-09, cumulative = 6.60907e-07
DICPCG:  Solving for p, Initial residual = 0.00182612, Final residual = 9.04353e-07, No Iterations 73
time step continuity errors : sum local = 1.18143e-09, global = -1.25835e-11, cumulative = 6.60894e-07
ExecutionTime = 1.09 s  ClockTime = 1 s

Time = 0.7375

Courant Number mean: 0.0596348 max: 2.65643
smoothSolver:  Solving for Ux, Initial residual = 0.002134, Final residual = 9.65789e-06, No Iterations 3
smoothSolver:  Solving for Uy, Initial residual = 0.00280812, Final residual = 8.55264e-06, No Iterations 4
DICPCG:  Solving for p, Initial residual = 0.00379457, Final residual = 0.00016999, No Iterations 19
time step continuity errors : sum local = 2.22376e-07, global = 7.56959e-09, cumulative = 6.68464e-07
DICPCG:  Solving for p, Initial residual = 0.00181481, Final residual = 8.81833e-07, No Iterations 73
time step continuity errors : sum local = 1.15538e-09, global = -1.45173e-11, cumulative = 6.68449e-07
ExecutionTime = 1.11 s  ClockTime = 1 s

Time = 0.75

Courant Number mean: 0.0597977 max: 2.65811
smoothSolver:  Solving for Ux, Initial residual = 0.00210317, Final residual = 9.7519e-06, No Iterations 3
smoothSolver:  Solving for Uy, Initial residual = 0.00277792, Final residual = 8.39977e-06, No Iterations 4
DICPCG:  Solving for p, Initial residual = 0.00372553, Final residual = 0.000166724, No Iterations 19
time step continuity errors : sum local = 2.18736e-07, global = 7.39224e-09, cumulative = 6.75842e-07
DICPCG:  Solving for p, Initial residual = 0.00178421, Final residual = 8.73561e-07, No Iterations 73
time step continuity errors : sum local = 1.14782e-09, global = -1.29839e-11, cumulative = 6.75829e-07
ExecutionTime = 1.15 s  ClockTime = 1 s

Time = 0.7625

Courant Number mean: 0.0599606 max: 2.65977
smoothSolver:  Solving for Ux, Initial residual = 0.00207316, Final residual = 9.61134e-06, No Iterations 3
smoothSolver:  Solving for Uy, Initial residual = 0.00274907, Final residual = 8.26758e-06, No Iterations 4
DICPCG:  Solving for p, Initial residual = 0.00365553, Final residual = 0.000164355, No Iterations 19
time step continuity errors : sum local = 2.16238e-07, global = 7.46533e-09, cumulative = 6.83294e-07
DICPCG:  Solving for p, Initial residual = 0.00175157, Final residual = 8.4605e-07, No Iterations 73
time step continuity errors : sum local = 1.11478e-09, global = -1.14457e-11, cumulative = 6.83283e-07
ExecutionTime = 1.16 s  ClockTime = 1 s

Time = 0.775

Courant Number mean: 0.0601209 max: 2.6614
smoothSolver:  Solving for Ux, Initial residual = 0.00204422, Final residual = 9.4238e-06, No Iterations 3
smoothSolver:  Solving for Uy, Initial residual = 0.00272096, Final residual = 8.14767e-06, No Iterations 4
DICPCG:  Solving for p, Initial residual = 0.00358517, Final residual = 0.000161177, No Iterations 19
time step continuity errors : sum local = 2.12645e-07, global = 7.31521e-09, cumulative = 6.90598e-07
DICPCG:  Solving for p, Initial residual = 0.00171751, Final residual = 8.31407e-07, No Iterations 73
time step continuity errors : sum local = 1.09848e-09, global = -9.55066e-12, cumulative = 6.90588e-07
ExecutionTime = 1.18 s  ClockTime = 1 s

Time = 0.7875

Courant Number mean: 0.0602807 max: 2.66301
smoothSolver:  Solving for Ux, Initial residual = 0.00201643, Final residual = 9.24853e-06, No Iterations 3
smoothSolver:  Solving for Uy, Initial residual = 0.00269371, Final residual = 8.03393e-06, No Iterations 4
DICPCG:  Solving for p, Initial residual = 0.00351723, Final residual = 0.000158808, No Iterations 19
time step continuity errors : sum local = 2.10085e-07, global = 7.38566e-09, cumulative = 6.97974e-07
DICPCG:  Solving for p, Initial residual = 0.00168705, Final residual = 8.11265e-07, No Iterations 73
time step continuity errors : sum local = 1.07473e-09, global = -7.53213e-12, cumulative = 6.97966e-07
ExecutionTime = 1.2 s  ClockTime = 1 s

Time = 0.8

Courant Number mean: 0.0604388 max: 2.66459
smoothSolver:  Solving for Ux, Initial residual = 0.00198973, Final residual = 9.09053e-06, No Iterations 3
smoothSolver:  Solving for Uy, Initial residual = 0.0026671, Final residual = 7.92365e-06, No Iterations 4
DICPCG:  Solving for p, Initial residual = 0.0034518, Final residual = 0.000155506, No Iterations 19
time step continuity errors : sum local = 2.06259e-07, global = 7.24198e-09, cumulative = 7.05208e-07
DICPCG:  Solving for p, Initial residual = 0.00165561, Final residual = 7.96489e-07, No Iterations 73
time step continuity errors : sum local = 1.0579e-09, global = -6.06704e-12, cumulative = 7.05202e-07
ExecutionTime = 1.22 s  ClockTime = 1 s

Time = 0.8125

Courant Number mean: 0.0605957 max: 2.66615
smoothSolver:  Solving for Ux, Initial residual = 0.00196416, Final residual = 8.94542e-06, No Iterations 3
smoothSolver:  Solving for Uy, Initial residual = 0.00264149, Final residual = 7.81831e-06, No Iterations 4
DICPCG:  Solving for p, Initial residual = 0.00338838, Final residual = 0.000153251, No Iterations 19
time step continuity errors : sum local = 2.03792e-07, global = 7.31077e-09, cumulative = 7.12513e-07
DICPCG:  Solving for p, Initial residual = 0.00162814, Final residual = 9.99935e-07, No Iterations 72
time step continuity errors : sum local = 1.3315e-09, global = -3.5392e-12, cumulative = 7.12509e-07
ExecutionTime = 1.23 s  ClockTime = 1 s

Time = 0.825

Courant Number mean: 0.0607517 max: 2.66768
smoothSolver:  Solving for Ux, Initial residual = 0.00193939, Final residual = 8.80765e-06, No Iterations 3
smoothSolver:  Solving for Uy, Initial residual = 0.00261689, Final residual = 7.71584e-06, No Iterations 4
DICPCG:  Solving for p, Initial residual = 0.00332701, Final residual = 0.000150062, No Iterations 19
time step continuity errors : sum local = 2.00054e-07, global = 7.17205e-09, cumulative = 7.19682e-07
DICPCG:  Solving for p, Initial residual = 0.00159854, Final residual = 7.66592e-07, No Iterations 73
time step continuity errors : sum local = 1.02333e-09, global = -3.9087e-12, cumulative = 7.19678e-07
ExecutionTime = 1.25 s  ClockTime = 1 s

Time = 0.8375

Courant Number mean: 0.0609069 max: 2.66919
smoothSolver:  Solving for Ux, Initial residual = 0.0019153, Final residual = 8.67592e-06, No Iterations 3
smoothSolver:  Solving for Uy, Initial residual = 0.00259309, Final residual = 7.61787e-06, No Iterations 4
DICPCG:  Solving for p, Initial residual = 0.00326746, Final residual = 0.000147685, No Iterations 19
time step continuity errors : sum local = 1.9737e-07, global = 7.24556e-09, cumulative = 7.26923e-07
DICPCG:  Solving for p, Initial residual = 0.0015732, Final residual = 9.81348e-07, No Iterations 72
time step continuity errors : sum local = 1.31318e-09, global = -1.78242e-12, cumulative = 7.26921e-07
ExecutionTime = 1.26 s  ClockTime = 1 s

Time = 0.85

Courant Number mean: 0.0610606 max: 2.67067
smoothSolver:  Solving for Ux, Initial residual = 0.00189213, Final residual = 8.54924e-06, No Iterations 3
smoothSolver:  Solving for Uy, Initial residual = 0.00257032, Final residual = 7.52284e-06, No Iterations 4
DICPCG:  Solving for p, Initial residual = 0.0032098, Final residual = 0.000145381, No Iterations 19
time step continuity errors : sum local = 1.94757e-07, global = 7.10556e-09, cumulative = 7.34027e-07
DICPCG:  Solving for p, Initial residual = 0.00154542, Final residual = 7.39923e-07, No Iterations 73
time step continuity errors : sum local = 9.92474e-10, global = -3.09454e-12, cumulative = 7.34024e-07
ExecutionTime = 1.28 s  ClockTime = 1 s

Time = 0.8625

Courant Number mean: 0.0612133 max: 2.67213
smoothSolver:  Solving for Ux, Initial residual = 0.00186972, Final residual = 8.42685e-06, No Iterations 3
smoothSolver:  Solving for Uy, Initial residual = 0.00254838, Final residual = 7.43055e-06, No Iterations 4
DICPCG:  Solving for p, Initial residual = 0.00315343, Final residual = 0.000140941, No Iterations 19
time step continuity errors : sum local = 1.89254e-07, global = 7.19254e-09, cumulative = 7.41216e-07
DICPCG:  Solving for p, Initial residual = 0.00152082, Final residual = 9.68165e-07, No Iterations 72
time step continuity errors : sum local = 1.30164e-09, global = -1.13457e-12, cumulative = 7.41215e-07
ExecutionTime = 1.29 s  ClockTime = 1 s

Time = 0.875

Courant Number mean: 0.0613646 max: 2.67356
smoothSolver:  Solving for Ux, Initial residual = 0.00184807, Final residual = 8.30756e-06, No Iterations 3
smoothSolver:  Solving for Uy, Initial residual = 0.00252709, Final residual = 7.34002e-06, No Iterations 4
DICPCG:  Solving for p, Initial residual = 0.00309919, Final residual = 0.000140463, No Iterations 19
time step continuity errors : sum local = 1.89047e-07, global = 7.05211e-09, cumulative = 7.48267e-07
DICPCG:  Solving for p, Initial residual = 0.00149492, Final residual = 9.87936e-07, No Iterations 72
time step continuity errors : sum local = 1.33126e-09, global = -7.97583e-14, cumulative = 7.48267e-07
ExecutionTime = 1.31 s  ClockTime = 1 s

Time = 0.8875

Courant Number mean: 0.0615137 max: 2.67499
smoothSolver:  Solving for Ux, Initial residual = 0.00182692, Final residual = 8.19247e-06, No Iterations 3
smoothSolver:  Solving for Uy, Initial residual = 0.00250629, Final residual = 7.25229e-06, No Iterations 4
DICPCG:  Solving for p, Initial residual = 0.0030468, Final residual = 0.000132032, No Iterations 19
time step continuity errors : sum local = 1.78104e-07, global = 7.16465e-09, cumulative = 7.55432e-07
DICPCG:  Solving for p, Initial residual = 0.00146835, Final residual = 9.28711e-07, No Iterations 72
time step continuity errors : sum local = 1.25428e-09, global = -1.0377e-12, cumulative = 7.55431e-07
ExecutionTime = 1.32 s  ClockTime = 1 s

Time = 0.9

Courant Number mean: 0.0616619 max: 2.67642
smoothSolver:  Solving for Ux, Initial residual = 0.0018063, Final residual = 8.07963e-06, No Iterations 3
smoothSolver:  Solving for Uy, Initial residual = 0.00248579, Final residual = 7.16599e-06, No Iterations 4
DICPCG:  Solving for p, Initial residual = 0.00299612, Final residual = 0.000134782, No Iterations 19
time step continuity errors : sum local = 1.82222e-07, global = 7.02242e-09, cumulative = 7.62453e-07
DICPCG:  Solving for p, Initial residual = 0.00144662, Final residual = 9.67783e-07, No Iterations 72
time step continuity errors : sum local = 1.30995e-09, global = -8.6348e-13, cumulative = 7.62452e-07
ExecutionTime = 1.34 s  ClockTime = 2 s

Time = 0.9125

Courant Number mean: 0.0618081 max: 2.67783
smoothSolver:  Solving for Ux, Initial residual = 0.00178617, Final residual = 7.97179e-06, No Iterations 3
smoothSolver:  Solving for Uy, Initial residual = 0.00246595, Final residual = 7.08278e-06, No Iterations 4
DICPCG:  Solving for p, Initial residual = 0.00294769, Final residual = 0.000132842, No Iterations 19
time step continuity errors : sum local = 1.79997e-07, global = 7.03434e-09, cumulative = 7.69487e-07
DICPCG:  Solving for p, Initial residual = 0.00142568, Final residual = 9.37501e-07, No Iterations 72
time step continuity errors : sum local = 1.27176e-09, global = -2.03143e-12, cumulative = 7.69485e-07
ExecutionTime = 1.35 s  ClockTime = 2 s

Time = 0.925

Courant Number mean: 0.0619532 max: 2.67921
smoothSolver:  Solving for Ux, Initial residual = 0.0017665, Final residual = 7.86606e-06, No Iterations 3
smoothSolver:  Solving for Uy, Initial residual = 0.00244659, Final residual = 7.00119e-06, No Iterations 4
DICPCG:  Solving for p, Initial residual = 0.00290047, Final residual = 0.00013077, No Iterations 19
time step continuity errors : sum local = 1.77576e-07, global = 7.01073e-09, cumulative = 7.76495e-07
DICPCG:  Solving for p, Initial residual = 0.00140281, Final residual = 9.23171e-07, No Iterations 72
time step continuity errors : sum local = 1.25502e-09, global = -3.06071e-12, cumulative = 7.76492e-07
ExecutionTime = 1.37 s  ClockTime = 2 s

Time = 0.9375

Courant Number mean: 0.0620971 max: 2.68058
smoothSolver:  Solving for Ux, Initial residual = 0.00174738, Final residual = 7.76419e-06, No Iterations 3
smoothSolver:  Solving for Uy, Initial residual = 0.00242765, Final residual = 6.92139e-06, No Iterations 4
DICPCG:  Solving for p, Initial residual = 0.00285509, Final residual = 0.000129018, No Iterations 19
time step continuity errors : sum local = 1.7557e-07, global = 6.98324e-09, cumulative = 7.83476e-07
DICPCG:  Solving for p, Initial residual = 0.00138288, Final residual = 9.22817e-07, No Iterations 72
time step continuity errors : sum local = 1.25719e-09, global = -3.52172e-12, cumulative = 7.83472e-07
ExecutionTime = 1.39 s  ClockTime = 2 s

Time = 0.95

Courant Number mean: 0.0622402 max: 2.68192
smoothSolver:  Solving for Ux, Initial residual = 0.00172923, Final residual = 7.66466e-06, No Iterations 3
smoothSolver:  Solving for Uy, Initial residual = 0.00240908, Final residual = 6.8431e-06, No Iterations 4
DICPCG:  Solving for p, Initial residual = 0.0028113, Final residual = 0.000126891, No Iterations 19
time step continuity errors : sum local = 1.73037e-07, global = 6.9569e-09, cumulative = 7.90429e-07
DICPCG:  Solving for p, Initial residual = 0.00136053, Final residual = 9.24537e-07, No Iterations 72
time step continuity errors : sum local = 1.26214e-09, global = -4.19365e-12, cumulative = 7.90425e-07
ExecutionTime = 1.4 s  ClockTime = 2 s

Time = 0.9625

Courant Number mean: 0.0623823 max: 2.68324
smoothSolver:  Solving for Ux, Initial residual = 0.00171155, Final residual = 7.56795e-06, No Iterations 3
smoothSolver:  Solving for Uy, Initial residual = 0.0023908, Final residual = 6.76796e-06, No Iterations 4
DICPCG:  Solving for p, Initial residual = 0.0027686, Final residual = 0.000125306, No Iterations 19
time step continuity errors : sum local = 1.71227e-07, global = 6.96616e-09, cumulative = 7.97391e-07
DICPCG:  Solving for p, Initial residual = 0.00134272, Final residual = 9.30712e-07, No Iterations 72
time step continuity errors : sum local = 1.27314e-09, global = -4.50839e-12, cumulative = 7.97386e-07
ExecutionTime = 1.41 s  ClockTime = 2 s

Time = 0.975

Courant Number mean: 0.0625237 max: 2.68454
smoothSolver:  Solving for Ux, Initial residual = 0.00169464, Final residual = 7.47319e-06, No Iterations 3
smoothSolver:  Solving for Uy, Initial residual = 0.00237283, Final residual = 6.69501e-06, No Iterations 4
DICPCG:  Solving for p, Initial residual = 0.00272746, Final residual = 0.000123907, No Iterations 19
time step continuity errors : sum local = 1.69654e-07, global = 6.89425e-09, cumulative = 8.04281e-07
DICPCG:  Solving for p, Initial residual = 0.001321, Final residual = 9.15233e-07, No Iterations 72
time step continuity errors : sum local = 1.25445e-09, global = -5.4894e-12, cumulative = 8.04275e-07
ExecutionTime = 1.43 s  ClockTime = 2 s

Time = 0.9875

Courant Number mean: 0.062664 max: 2.68582
smoothSolver:  Solving for Ux, Initial residual = 0.00167817, Final residual = 7.38147e-06, No Iterations 3
smoothSolver:  Solving for Uy, Initial residual = 0.00235499, Final residual = 6.62382e-06, No Iterations 4
DICPCG:  Solving for p, Initial residual = 0.00268742, Final residual = 0.000119752, No Iterations 19
time step continuity errors : sum local = 1.64288e-07, global = 6.97224e-09, cumulative = 8.11247e-07
DICPCG:  Solving for p, Initial residual = 0.00130298, Final residual = 8.97335e-07, No Iterations 72
time step continuity errors : sum local = 1.23232e-09, global = -6.21146e-12, cumulative = 8.11241e-07
ExecutionTime = 1.44 s  ClockTime = 2 s

Time = 1

Courant Number mean: 0.0628036 max: 2.68708
smoothSolver:  Solving for Ux, Initial residual = 0.00166201, Final residual = 7.29136e-06, No Iterations 3
smoothSolver:  Solving for Uy, Initial residual = 0.00233731, Final residual = 6.55391e-06, No Iterations 4
DICPCG:  Solving for p, Initial residual = 0.00264878, Final residual = 0.000120583, No Iterations 19
time step continuity errors : sum local = 1.65748e-07, global = 6.83626e-09, cumulative = 8.18078e-07
DICPCG:  Solving for p, Initial residual = 0.00128304, Final residual = 9.11273e-07, No Iterations 72
time step continuity errors : sum local = 1.25385e-09, global = -6.82623e-12, cumulative = 8.18071e-07
ExecutionTime = 1.49 s  ClockTime = 2 s

Time = 1.0125

Courant Number mean: 0.0629429 max: 2.68833
smoothSolver:  Solving for Ux, Initial residual = 0.00164622, Final residual = 7.20493e-06, No Iterations 3
smoothSolver:  Solving for Uy, Initial residual = 0.00231998, Final residual = 6.48579e-06, No Iterations 4
DICPCG:  Solving for p, Initial residual = 0.00261145, Final residual = 0.000117903, No Iterations 19
time step continuity errors : sum local = 1.62371e-07, global = 6.91944e-09, cumulative = 8.2499e-07
DICPCG:  Solving for p, Initial residual = 0.00126729, Final residual = 8.94688e-07, No Iterations 72
time step continuity errors : sum local = 1.23335e-09, global = -7.62973e-12, cumulative = 8.24983e-07
ExecutionTime = 1.51 s  ClockTime = 2 s

Time = 1.025

Courant Number mean: 0.0630815 max: 2.68958
smoothSolver:  Solving for Ux, Initial residual = 0.00163074, Final residual = 7.11939e-06, No Iterations 3
smoothSolver:  Solving for Uy, Initial residual = 0.00230306, Final residual = 6.41898e-06, No Iterations 4
DICPCG:  Solving for p, Initial residual = 0.00257524, Final residual = 0.000117393, No Iterations 19
time step continuity errors : sum local = 1.61972e-07, global = 6.81142e-09, cumulative = 8.31794e-07
DICPCG:  Solving for p, Initial residual = 0.00124729, Final residual = 8.90034e-07, No Iterations 72
time step continuity errors : sum local = 1.2292e-09, global = -8.37e-12, cumulative = 8.31786e-07
ExecutionTime = 1.52 s  ClockTime = 2 s

Time = 1.0375

Courant Number mean: 0.0632196 max: 2.69082
smoothSolver:  Solving for Ux, Initial residual = 0.00161556, Final residual = 7.03698e-06, No Iterations 3
smoothSolver:  Solving for Uy, Initial residual = 0.00228659, Final residual = 6.35384e-06, No Iterations 4
DICPCG:  Solving for p, Initial residual = 0.00254012, Final residual = 0.000114186, No Iterations 19
time step continuity errors : sum local = 1.57834e-07, global = 6.89171e-09, cumulative = 8.38677e-07
DICPCG:  Solving for p, Initial residual = 0.0012316, Final residual = 8.7485e-07, No Iterations 72
time step continuity errors : sum local = 1.21042e-09, global = -9.00029e-12, cumulative = 8.38668e-07
ExecutionTime = 1.54 s  ClockTime = 2 s

Time = 1.05

Courant Number mean: 0.0633574 max: 2.69204
smoothSolver:  Solving for Ux, Initial residual = 0.00160082, Final residual = 6.95543e-06, No Iterations 3
smoothSolver:  Solving for Uy, Initial residual = 0.00227038, Final residual = 6.28986e-06, No Iterations 4
DICPCG:  Solving for p, Initial residual = 0.00250564, Final residual = 0.000114632, No Iterations 19
time step continuity errors : sum local = 1.58737e-07, global = 6.78348e-09, cumulative = 8.45452e-07
DICPCG:  Solving for p, Initial residual = 0.00121357, Final residual = 8.66967e-07, No Iterations 72
time step continuity errors : sum local = 1.20166e-09, global = -9.804e-12, cumulative = 8.45442e-07
ExecutionTime = 1.55 s  ClockTime = 2 s

Time = 1.0625

Courant Number mean: 0.0634947 max: 2.69324
smoothSolver:  Solving for Ux, Initial residual = 0.0015864, Final residual = 6.87668e-06, No Iterations 3
smoothSolver:  Solving for Uy, Initial residual = 0.00225467, Final residual = 6.22752e-06, No Iterations 4
DICPCG:  Solving for p, Initial residual = 0.0024718, Final residual = 0.000112829, No Iterations 19
time step continuity errors : sum local = 1.56518e-07, global = 6.83642e-09, cumulative = 8.52278e-07
DICPCG:  Solving for p, Initial residual = 0.00119864, Final residual = 8.68323e-07, No Iterations 72
time step continuity errors : sum local = 1.20568e-09, global = -1.01951e-11, cumulative = 8.52268e-07
ExecutionTime = 1.57 s  ClockTime = 2 s

Time = 1.075

Courant Number mean: 0.0636306 max: 2.69442
smoothSolver:  Solving for Ux, Initial residual = 0.00157244, Final residual = 6.79903e-06, No Iterations 3
smoothSolver:  Solving for Uy, Initial residual = 0.00223986, Final residual = 6.16633e-06, No Iterations 4
DICPCG:  Solving for p, Initial residual = 0.00243851, Final residual = 0.000111833, No Iterations 19
time step continuity errors : sum local = 1.55412e-07, global = 6.77293e-09, cumulative = 8.59041e-07
DICPCG:  Solving for p, Initial residual = 0.00118141, Final residual = 8.40674e-07, No Iterations 72
time step continuity errors : sum local = 1.16934e-09, global = -1.09274e-11, cumulative = 8.5903e-07
ExecutionTime = 1.58 s  ClockTime = 2 s

Time = 1.0875

Courant Number mean: 0.0637657 max: 2.69558
smoothSolver:  Solving for Ux, Initial residual = 0.0015588, Final residual = 6.72368e-06, No Iterations 3
smoothSolver:  Solving for Uy, Initial residual = 0.00222535, Final residual = 6.10649e-06, No Iterations 4
DICPCG:  Solving for p, Initial residual = 0.00240566, Final residual = 0.000109261, No Iterations 19
time step continuity errors : sum local = 1.52107e-07, global = 6.79684e-09, cumulative = 8.65827e-07
DICPCG:  Solving for p, Initial residual = 0.00116548, Final residual = 8.48803e-07, No Iterations 72
time step continuity errors : sum local = 1.18274e-09, global = -1.12165e-11, cumulative = 8.65816e-07
ExecutionTime = 1.6 s  ClockTime = 2 s

Time = 1.1

Courant Number mean: 0.0639 max: 2.69673
smoothSolver:  Solving for Ux, Initial residual = 0.00154577, Final residual = 6.64959e-06, No Iterations 3
smoothSolver:  Solving for Uy, Initial residual = 0.00221137, Final residual = 6.04785e-06, No Iterations 4
DICPCG:  Solving for p, Initial residual = 0.0023731, Final residual = 0.000109611, No Iterations 19
time step continuity errors : sum local = 1.52862e-07, global = 6.74273e-09, cumulative = 8.72559e-07
DICPCG:  Solving for p, Initial residual = 0.0011509, Final residual = 8.19272e-07, No Iterations 72
time step continuity errors : sum local = 1.1436e-09, global = -1.18536e-11, cumulative = 8.72547e-07
ExecutionTime = 1.62 s  ClockTime = 2 s

Time = 1.1125

Courant Number mean: 0.064034 max: 2.69786
smoothSolver:  Solving for Ux, Initial residual = 0.00153317, Final residual = 6.57754e-06, No Iterations 3
smoothSolver:  Solving for Uy, Initial residual = 0.00219776, Final residual = 5.9906e-06, No Iterations 4
DICPCG:  Solving for p, Initial residual = 0.00234239, Final residual = 0.000108828, No Iterations 19
time step continuity errors : sum local = 1.52035e-07, global = 6.73302e-09, cumulative = 8.7928e-07
DICPCG:  Solving for p, Initial residual = 0.00113569, Final residual = 9.89966e-07, No Iterations 71
time step continuity errors : sum local = 1.38425e-09, global = 1.38792e-12, cumulative = 8.79281e-07
ExecutionTime = 1.63 s  ClockTime = 2 s

Time = 1.125

Courant Number mean: 0.0641668 max: 2.69897
smoothSolver:  Solving for Ux, Initial residual = 0.00152088, Final residual = 6.50696e-06, No Iterations 3
smoothSolver:  Solving for Uy, Initial residual = 0.00218451, Final residual = 5.93454e-06, No Iterations 4
DICPCG:  Solving for p, Initial residual = 0.00231246, Final residual = 0.00010786, No Iterations 19
time step continuity errors : sum local = 1.50941e-07, global = 6.70743e-09, cumulative = 8.85989e-07
DICPCG:  Solving for p, Initial residual = 0.00112178, Final residual = 9.68384e-07, No Iterations 71
time step continuity errors : sum local = 1.35637e-09, global = 6.8775e-13, cumulative = 8.85989e-07
ExecutionTime = 1.65 s  ClockTime = 2 s

Time = 1.1375

Courant Number mean: 0.0642999 max: 2.70007
smoothSolver:  Solving for Ux, Initial residual = 0.0015089, Final residual = 6.43841e-06, No Iterations 3
smoothSolver:  Solving for Uy, Initial residual = 0.00217173, Final residual = 5.87985e-06, No Iterations 4
DICPCG:  Solving for p, Initial residual = 0.00228335, Final residual = 0.000106461, No Iterations 19
time step continuity errors : sum local = 1.49234e-07, global = 6.70284e-09, cumulative = 8.92692e-07
DICPCG:  Solving for p, Initial residual = 0.00110734, Final residual = 9.49757e-07, No Iterations 71
time step continuity errors : sum local = 1.3325e-09, global = 4.73873e-13, cumulative = 8.92693e-07
ExecutionTime = 1.66 s  ClockTime = 2 s

Time = 1.15

Courant Number mean: 0.0644321 max: 2.70115
smoothSolver:  Solving for Ux, Initial residual = 0.00149721, Final residual = 6.37168e-06, No Iterations 3
smoothSolver:  Solving for Uy, Initial residual = 0.00215931, Final residual = 5.8265e-06, No Iterations 4
DICPCG:  Solving for p, Initial residual = 0.00225564, Final residual = 0.000105588, No Iterations 19
time step continuity errors : sum local = 1.48256e-07, global = 6.67771e-09, cumulative = 8.9937e-07
DICPCG:  Solving for p, Initial residual = 0.00109398, Final residual = 9.33048e-07, No Iterations 71
time step continuity errors : sum local = 1.31123e-09, global = -2.05481e-13, cumulative = 8.9937e-07
ExecutionTime = 1.68 s  ClockTime = 2 s

Time = 1.1625

Courant Number mean: 0.0645634 max: 2.70222
smoothSolver:  Solving for Ux, Initial residual = 0.00148572, Final residual = 6.30682e-06, No Iterations 3
smoothSolver:  Solving for Uy, Initial residual = 0.00214708, Final residual = 9.92702e-06, No Iterations 3
DICPCG:  Solving for p, Initial residual = 0.00224783, Final residual = 0.000102996, No Iterations 19
time step continuity errors : sum local = 1.44845e-07, global = 6.61613e-09, cumulative = 9.05986e-07
DICPCG:  Solving for p, Initial residual = 0.0011198, Final residual = 8.62025e-07, No Iterations 72
time step continuity errors : sum local = 1.2133e-09, global = -2.66506e-11, cumulative = 9.0596e-07
ExecutionTime = 1.69 s  ClockTime = 2 s

Time = 1.175

Courant Number mean: 0.0646941 max: 2.70327
smoothSolver:  Solving for Ux, Initial residual = 0.00147405, Final residual = 6.18764e-06, No Iterations 3
smoothSolver:  Solving for Uy, Initial residual = 0.00213492, Final residual = 6.55567e-06, No Iterations 4
DICPCG:  Solving for p, Initial residual = 0.00221887, Final residual = 0.000104195, No Iterations 19
[...]

        p

    Reconstructing volVectorFields

        U

    Reconstructing surfaceScalarFields

        phi

Reconstructing point fields

No point fields

No lagrangian fields

Time = 5.75

Reconstructing FV fields

    Reconstructing volScalarFields

        p

    Reconstructing volVectorFields

        U

    Reconstructing surfaceScalarFields

        phi

Reconstructing point fields

No point fields

No lagrangian fields

Time = 6

Reconstructing FV fields

    Reconstructing volScalarFields

        p

    Reconstructing volVectorFields

        U

    Reconstructing surfaceScalarFields

        phi

Reconstructing point fields

No point fields

No lagrangian fields

Time = 6.25

Reconstructing FV fields

    Reconstructing volScalarFields

        p

    Reconstructing volVectorFields

        U

    Reconstructing surfaceScalarFields

        phi

Reconstructing point fields

No point fields

No lagrangian fields

Time = 6.5

Reconstructing FV fields

    Reconstructing volScalarFields

        p

    Reconstructing volVectorFields

        U

    Reconstructing surfaceScalarFields

        phi

Reconstructing point fields

No point fields

No lagrangian fields

Time = 6.75

Reconstructing FV fields

    Reconstructing volScalarFields

        p

    Reconstructing volVectorFields

        U

    Reconstructing surfaceScalarFields

        phi

Reconstructing point fields

No point fields

No lagrangian fields

Time = 7

Reconstructing FV fields

    Reconstructing volScalarFields

        p

    Reconstructing volVectorFields

        U

    Reconstructing surfaceScalarFields

        phi

Reconstructing point fields

No point fields

No lagrangian fields

Time = 7.25

Reconstructing FV fields

    Reconstructing volScalarFields

        p

    Reconstructing volVectorFields

        U

    Reconstructing surfaceScalarFields

        phi

Reconstructing point fields

No point fields

No lagrangian fields

Time = 7.5

Reconstructing FV fields

    Reconstructing volScalarFields

        p

    Reconstructing volVectorFields

        U

    Reconstructing surfaceScalarFields

        phi

Reconstructing point fields

No point fields

No lagrangian fields

Time = 7.75

Reconstructing FV fields

    Reconstructing volScalarFields

        p

    Reconstructing volVectorFields

        U

    Reconstructing surfaceScalarFields

        phi

Reconstructing point fields

No point fields

No lagrangian fields

Time = 8

Reconstructing FV fields

    Reconstructing volScalarFields

        p

    Reconstructing volVectorFields

        U

    Reconstructing surfaceScalarFields

        phi

Reconstructing point fields

No point fields

No lagrangian fields

Time = 8.25

Reconstructing FV fields

    Reconstructing volScalarFields

        p

    Reconstructing volVectorFields

        U

    Reconstructing surfaceScalarFields

        phi

Reconstructing point fields

No point fields

No lagrangian fields

Time = 8.5

Reconstructing FV fields

    Reconstructing volScalarFields

        p

    Reconstructing volVectorFields

        U

    Reconstructing surfaceScalarFields

        phi

Reconstructing point fields

No point fields

No lagrangian fields

Time = 8.75

Reconstructing FV fields

    Reconstructing volScalarFields

        p

    Reconstructing volVectorFields

        U

    Reconstructing surfaceScalarFields

        phi

Reconstructing point fields

No point fields

No lagrangian fields

Time = 9

Reconstructing FV fields

    Reconstructing volScalarFields

        p

    Reconstructing volVectorFields

        U

    Reconstructing surfaceScalarFields

        phi

Reconstructing point fields

No point fields

No lagrangian fields

Time = 9.25

Reconstructing FV fields

    Reconstructing volScalarFields

        p

    Reconstructing volVectorFields

        U

    Reconstructing surfaceScalarFields

        phi

Reconstructing point fields

No point fields

No lagrangian fields

Time = 9.5

Reconstructing FV fields

    Reconstructing volScalarFields

        p

    Reconstructing volVectorFields

        U

    Reconstructing surfaceScalarFields

        phi

Reconstructing point fields

No point fields

No lagrangian fields

Time = 9.75

Reconstructing FV fields

    Reconstructing volScalarFields

        p

    Reconstructing volVectorFields

        U

    Reconstructing surfaceScalarFields

        phi

Reconstructing point fields

No point fields

No lagrangian fields

Time = 10

Reconstructing FV fields

    Reconstructing volScalarFields

        p

    Reconstructing volVectorFields

        U

    Reconstructing surfaceScalarFields

        phi

Reconstructing point fields

No point fields

No lagrangian fields

Time = 10.25

Reconstructing FV fields

    Reconstructing volScalarFields

        p

    Reconstructing volVectorFields

        U

    Reconstructing surfaceScalarFields

        phi

Reconstructing point fields

No point fields

No lagrangian fields

Time = 10.5

Reconstructing FV fields

    Reconstructing volScalarFields

        p

    Reconstructing volVectorFields

        U

    Reconstructing surfaceScalarFields

        phi

Reconstructing point fields

No point fields

No lagrangian fields

Time = 10.75

Reconstructing FV fields

    Reconstructing volScalarFields

        p

    Reconstructing volVectorFields

        U

    Reconstructing surfaceScalarFields

        phi

Reconstructing point fields

No point fields

No lagrangian fields

Time = 11

Reconstructing FV fields

    Reconstructing volScalarFields

        p

    Reconstructing volVectorFields

        U

    Reconstructing surfaceScalarFields

        phi

Reconstructing point fields

No point fields

No lagrangian fields

Time = 11.25

Reconstructing FV fields

    Reconstructing volScalarFields

        p

    Reconstructing volVectorFields

        U

    Reconstructing surfaceScalarFields

        phi

Reconstructing point fields

No point fields

No lagrangian fields

Time = 11.5

Reconstructing FV fields

    Reconstructing volScalarFields

        p

    Reconstructing volVectorFields

        U

    Reconstructing surfaceScalarFields

        phi

Reconstructing point fields

No point fields

No lagrangian fields

Time = 11.75

Reconstructing FV fields

    Reconstructing volScalarFields

        p

    Reconstructing volVectorFields

        U

    Reconstructing surfaceScalarFields

        phi

Reconstructing point fields

No point fields

No lagrangian fields

Time = 12

Reconstructing FV fields

    Reconstructing volScalarFields

        p

    Reconstructing volVectorFields

        U

    Reconstructing surfaceScalarFields

        phi

Reconstructing point fields

No point fields

No lagrangian fields

Time = 12.25

Reconstructing FV fields

    Reconstructing volScalarFields

        p

    Reconstructing volVectorFields

        U

    Reconstructing surfaceScalarFields

        phi

Reconstructing point fields

No point fields

No lagrangian fields

Time = 12.5

Reconstructing FV fields

    Reconstructing volScalarFields

        p

    Reconstructing volVectorFields

        U

    Reconstructing surfaceScalarFields

        phi

Reconstructing point fields

No point fields

No lagrangian fields

Time = 12.75

Reconstructing FV fields

    Reconstructing volScalarFields

        p

    Reconstructing volVectorFields

        U

    Reconstructing surfaceScalarFields

        phi

Reconstructing point fields

No point fields

No lagrangian fields

Time = 13

Reconstructing FV fields

    Reconstructing volScalarFields

        p

    Reconstructing volVectorFields

        U

    Reconstructing surfaceScalarFields

        phi

Reconstructing point fields

No point fields

No lagrangian fields

Time = 13.25

Reconstructing FV fields

    Reconstructing volScalarFields

        p

    Reconstructing volVectorFields

        U

    Reconstructing surfaceScalarFields

        phi

Reconstructing point fields

No point fields

No lagrangian fields

Time = 13.5

Reconstructing FV fields

    Reconstructing volScalarFields

        p

    Reconstructing volVectorFields

        U

    Reconstructing surfaceScalarFields

        phi

Reconstructing point fields

No point fields

No lagrangian fields

Time = 13.75

Reconstructing FV fields

    Reconstructing volScalarFields

        p

    Reconstructing volVectorFields

        U

    Reconstructing surfaceScalarFields

        phi

Reconstructing point fields

No point fields

No lagrangian fields

Time = 14

Reconstructing FV fields

    Reconstructing volScalarFields

        p

    Reconstructing volVectorFields

        U

    Reconstructing surfaceScalarFields

        phi

Reconstructing point fields

No point fields

No lagrangian fields

Time = 14.25

Reconstructing FV fields

    Reconstructing volScalarFields

        p

    Reconstructing volVectorFields

        U

    Reconstructing surfaceScalarFields

        phi

Reconstructing point fields

No point fields

No lagrangian fields

Time = 14.5

Reconstructing FV fields

    Reconstructing volScalarFields

        p

    Reconstructing volVectorFields

        U

    Reconstructing surfaceScalarFields

        phi

Reconstructing point fields

No point fields

No lagrangian fields

Time = 14.75

Reconstructing FV fields

    Reconstructing volScalarFields

        p

    Reconstructing volVectorFields

        U

    Reconstructing surfaceScalarFields

        phi

Reconstructing point fields

No point fields

No lagrangian fields

Time = 15

Reconstructing FV fields

    Reconstructing volScalarFields

        p

    Reconstructing volVectorFields

        U

    Reconstructing surfaceScalarFields

        phi

Reconstructing point fields

No point fields

No lagrangian fields

Time = 15.25

Reconstructing FV fields

    Reconstructing volScalarFields

        p

    Reconstructing volVectorFields

        U

    Reconstructing surfaceScalarFields

        phi

Reconstructing point fields

No point fields

No lagrangian fields

Time = 15.5

Reconstructing FV fields

    Reconstructing volScalarFields

        p

    Reconstructing volVectorFields

        U

    Reconstructing surfaceScalarFields

        phi

Reconstructing point fields

No point fields

No lagrangian fields

Time = 15.75

Reconstructing FV fields

    Reconstructing volScalarFields

        p

    Reconstructing volVectorFields

        U

    Reconstructing surfaceScalarFields

        phi

Reconstructing point fields

No point fields

No lagrangian fields

Time = 16

Reconstructing FV fields

    Reconstructing volScalarFields

        p

    Reconstructing volVectorFields

        U

    Reconstructing surfaceScalarFields

        phi

Reconstructing point fields

No point fields

No lagrangian fields

Time = 16.25

Reconstructing FV fields

    Reconstructing volScalarFields

        p

    Reconstructing volVectorFields

        U

    Reconstructing surfaceScalarFields

        phi

Reconstructing point fields

No point fields

No lagrangian fields

Time = 16.5

Reconstructing FV fields

    Reconstructing volScalarFields

        p

    Reconstructing volVectorFields

        U

    Reconstructing surfaceScalarFields

        phi

Reconstructing point fields

No point fields

No lagrangian fields

Time = 16.75

Reconstructing FV fields

    Reconstructing volScalarFields

        p

    Reconstructing volVectorFields

        U

    Reconstructing surfaceScalarFields

        phi

Reconstructing point fields

No point fields

No lagrangian fields

Time = 17

Reconstructing FV fields

    Reconstructing volScalarFields

        p

    Reconstructing volVectorFields

        U

    Reconstructing surfaceScalarFields

        phi

Reconstructing point fields

No point fields

No lagrangian fields

Time = 17.25

Reconstructing FV fields

    Reconstructing volScalarFields

        p

    Reconstructing volVectorFields

        U

    Reconstructing surfaceScalarFields

        phi

Reconstructing point fields

No point fields

No lagrangian fields

Time = 17.5

Reconstructing FV fields

    Reconstructing volScalarFields

        p

    Reconstructing volVectorFields

        U

    Reconstructing surfaceScalarFields

        phi

Reconstructing point fields

No point fields

No lagrangian fields

Time = 17.75

Reconstructing FV fields

    Reconstructing volScalarFields

        p

    Reconstructing volVectorFields

        U

    Reconstructing surfaceScalarFields

        phi

Reconstructing point fields

No point fields

No lagrangian fields

Time = 18

Reconstructing FV fields

    Reconstructing volScalarFields

        p

    Reconstructing volVectorFields

        U

    Reconstructing surfaceScalarFields

        phi

Reconstructing point fields

No point fields

No lagrangian fields

Time = 18.25

Reconstructing FV fields

    Reconstructing volScalarFields

        p

    Reconstructing volVectorFields

        U

    Reconstructing surfaceScalarFields

        phi

Reconstructing point fields

No point fields

No lagrangian fields

Time = 18.5

Reconstructing FV fields

    Reconstructing volScalarFields

        p

    Reconstructing volVectorFields

        U

    Reconstructing surfaceScalarFields

        phi

Reconstructing point fields

No point fields

No lagrangian fields

Time = 18.75

Reconstructing FV fields

    Reconstructing volScalarFields

        p

    Reconstructing volVectorFields

        U

    Reconstructing surfaceScalarFields

        phi

Reconstructing point fields

No point fields

No lagrangian fields

Time = 19

Reconstructing FV fields

    Reconstructing volScalarFields

        p

    Reconstructing volVectorFields

        U

    Reconstructing surfaceScalarFields

        phi

Reconstructing point fields

No point fields

No lagrangian fields

Time = 19.25

Reconstructing FV fields

    Reconstructing volScalarFields

        p

    Reconstructing volVectorFields

        U

    Reconstructing surfaceScalarFields

        phi

Reconstructing point fields

No point fields

No lagrangian fields

Time = 19.5

Reconstructing FV fields

    Reconstructing volScalarFields

        p

    Reconstructing volVectorFields

        U

    Reconstructing surfaceScalarFields

        phi

Reconstructing point fields

No point fields

No lagrangian fields

Time = 19.75

Reconstructing FV fields

    Reconstructing volScalarFields

        p

    Reconstructing volVectorFields

        U

    Reconstructing surfaceScalarFields

        phi

Reconstructing point fields

No point fields

No lagrangian fields

Time = 20

Reconstructing FV fields

    Reconstructing volScalarFields

        p

    Reconstructing volVectorFields

        U

    Reconstructing surfaceScalarFields

        phi

Reconstructing point fields

No point fields

No lagrangian fields

Time = 20.25

Reconstructing FV fields

    Reconstructing volScalarFields

        p

    Reconstructing volVectorFields

        U

    Reconstructing surfaceScalarFields

        phi

Reconstructing point fields

No point fields

No lagrangian fields

Time = 20.5

Reconstructing FV fields

    Reconstructing volScalarFields

        p

    Reconstructing volVectorFields

        U

    Reconstructing surfaceScalarFields

        phi

Reconstructing point fields

No point fields

No lagrangian fields

Time = 20.75

Reconstructing FV fields

    Reconstructing volScalarFields

        p

    Reconstructing volVectorFields

        U

    Reconstructing surfaceScalarFields

        phi

Reconstructing point fields

No point fields

No lagrangian fields

Time = 21

Reconstructing FV fields

    Reconstructing volScalarFields

        p

    Reconstructing volVectorFields

        U

    Reconstructing surfaceScalarFields

        phi

Reconstructing point fields

No point fields

No lagrangian fields

Time = 21.25

Reconstructing FV fields

    Reconstructing volScalarFields

        p

    Reconstructing volVectorFields

        U

    Reconstructing surfaceScalarFields

        phi

Reconstructing point fields

No point fields

No lagrangian fields

Time = 21.5

Reconstructing FV fields

    Reconstructing volScalarFields

        p

    Reconstructing volVectorFields

        U

    Reconstructing surfaceScalarFields

        phi

Reconstructing point fields

No point fields

No lagrangian fields

Time = 21.75

Reconstructing FV fields

    Reconstructing volScalarFields

        p

    Reconstructing volVectorFields

        U

    Reconstructing surfaceScalarFields

        phi

Reconstructing point fields

No point fields

No lagrangian fields

Time = 22

Reconstructing FV fields

    Reconstructing volScalarFields

        p

    Reconstructing volVectorFields

        U

    Reconstructing surfaceScalarFields

        phi

Reconstructing point fields

No point fields

No lagrangian fields

Time = 22.25

Reconstructing FV fields

    Reconstructing volScalarFields

        p

    Reconstructing volVectorFields

        U

    Reconstructing surfaceScalarFields

        phi

Reconstructing point fields

No point fields

No lagrangian fields

Time = 22.5

Reconstructing FV fields

    Reconstructing volScalarFields

        p

    Reconstructing volVectorFields

        U

    Reconstructing surfaceScalarFields

        phi

Reconstructing point fields

No point fields

No lagrangian fields

Time = 22.75

Reconstructing FV fields

    Reconstructing volScalarFields

        p

    Reconstructing volVectorFields

        U

    Reconstructing surfaceScalarFields

        phi

Reconstructing point fields

No point fields

No lagrangian fields

Time = 23

Reconstructing FV fields

    Reconstructing volScalarFields

        p

    Reconstructing volVectorFields

        U

    Reconstructing surfaceScalarFields

        phi

Reconstructing point fields

No point fields

No lagrangian fields

Time = 23.25

Reconstructing FV fields

    Reconstructing volScalarFields

        p

    Reconstructing volVectorFields

        U

    Reconstructing surfaceScalarFields

        phi

Reconstructing point fields

No point fields

No lagrangian fields

Time = 23.5

Reconstructing FV fields

    Reconstructing volScalarFields

        p

    Reconstructing volVectorFields

        U

    Reconstructing surfaceScalarFields

        phi

Reconstructing point fields

No point fields

No lagrangian fields

Time = 23.75

Reconstructing FV fields

    Reconstructing volScalarFields

        p

    Reconstructing volVectorFields

        U

    Reconstructing surfaceScalarFields

        phi

Reconstructing point fields

No point fields

No lagrangian fields

Time = 24

Reconstructing FV fields

    Reconstructing volScalarFields

        p

    Reconstructing volVectorFields

        U

    Reconstructing surfaceScalarFields

        phi

Reconstructing point fields

No point fields

No lagrangian fields

Time = 24.25

Reconstructing FV fields

    Reconstructing volScalarFields

        p

    Reconstructing volVectorFields

        U

    Reconstructing surfaceScalarFields

        phi

Reconstructing point fields

No point fields

No lagrangian fields

Time = 24.5

Reconstructing FV fields

    Reconstructing volScalarFields

        p

    Reconstructing volVectorFields

        U

    Reconstructing surfaceScalarFields

        phi

Reconstructing point fields

No point fields

No lagrangian fields

Time = 24.75

Reconstructing FV fields

    Reconstructing volScalarFields

        p

    Reconstructing volVectorFields

        U

    Reconstructing surfaceScalarFields

        phi

Reconstructing point fields

No point fields

No lagrangian fields

Time = 25

Reconstructing FV fields

    Reconstructing volScalarFields

        p

    Reconstructing volVectorFields

        U

    Reconstructing surfaceScalarFields

        phi

Reconstructing point fields

No point fields

No lagrangian fields


End

