/work/05113/danieler/stampede2/CFD-Final-Project/circular-cylinder-10-20
Wed May 13 09:15:03 CDT 2020
/*---------------------------------------------------------------------------*\
  =========                 |
  \\      /  F ield         | OpenFOAM: The Open Source CFD Toolbox
   \\    /   O peration     | Website:  https://openfoam.org
    \\  /    A nd           | Version:  6.0
     \\/     M anipulation  |
\*---------------------------------------------------------------------------*/
Build  : 6.0
Exec   : blockMesh
Date   : May 13 2020
Time   : 09:15:05
Host   : "c401-001.stampede2.tacc.utexas.edu"
PID    : 35702
I/O    : uncollated
Case   : /work/05113/danieler/stampede2/CFD-Final-Project/circular-cylinder-10-20
nProcs : 1
sigFpe : Enabling floating point exception trapping (FOAM_SIGFPE).
fileModificationChecking : Monitoring run-time modified files using timeStampMaster (fileModificationSkew 10)
allowSystemOperations : Allowing user-supplied system call operations

// * * * * * * * * * * * * * * * * * * * * * * * * * * * * * * * * * * * * * //
Create time

Deleting polyMesh directory
    "/work/05113/danieler/stampede2/CFD-Final-Project/circular-cylinder-10-20/constant/polyMesh"
Creating block mesh from
    "/work/05113/danieler/stampede2/CFD-Final-Project/circular-cylinder-10-20/system/blockMeshDict"
Creating block edges
No non-planar block faces defined
Creating topology blocks
Creating topology patches

Creating block mesh topology

Check topology

	Basic statistics
		Number of internal faces : 28
		Number of boundary faces : 64
		Number of defined boundary faces : 64
		Number of undefined boundary faces : 0
	Checking patch -> block consistency

Creating block offsets
Creating merge list .

Creating polyMesh from blockMesh
Creating points with scale 1
    Block 0 cell size :
        i : 0.05 .. 0.05
        j : 0.0392592 .. 0.0392592
        k : 1 .. 1

    Block 1 cell size :
        i : 0.0392592 .. 0.0392592
        j : 0.05 .. 0.05
        k : 1 .. 1

    Block 2 cell size :
        i : 0.0392592 .. 0.0392592
        j : 0.0499924 .. 0.0499924
        k : 1 .. 1

    Block 3 cell size :
        i : 0.05 .. 0.05
        j : 0.0785183 .. 0.0785183
        k : 1 .. 1

    Block 4 cell size :
        i : 0.0499924 .. 0.0499924
        j : 0.0785183 .. 0.0785183
        k : 1 .. 1

    Block 5 cell size :
        i : 0.0785183 .. 0.0785183
        j : 0.0499924 .. 0.0499924
        k : 1 .. 1

    Block 6 cell size :
        i : 0.0785183 .. 0.0785183
        j : 0.05 .. 0.05
        k : 1 .. 1

    Block 7 cell size :
        i : 0.0499924 .. 0.0499924
        j : 0.0392592 .. 0.0392592
        k : 1 .. 1

    Block 8 cell size :
        i : 0.26355 .. 1.0542
        j : 0.0785183 .. 0.0785183
        k : 1 .. 1

    Block 9 cell size :
        i : 0.270262 .. 1.08105
        j : 0.126864 .. 0.507457
        k : 1 .. 1

    Block 10 cell size :
        i : 0.0785183 .. 0.0785183
        j : 0.11356 .. 0.454238
        k : 1 .. 1

    Block 11 cell size :
        i : 0.0785183 .. 0.0785183
        j : 0.126864 .. 0.507457
        k : 1 .. 1

    Block 12 cell size :
        i : 0.27929 .. 0.27929
        j : 0.126864 .. 0.507457
        k : 1 .. 1

    Block 13 cell size :
        i : 0.25 .. 0.25
        j : 0.07071 .. 0.07071
        k : 1 .. 1

    Block 14 cell size :
        i : 0.27929 .. 0.27929
        j : 0.07071 .. 0.07071
        k : 1 .. 1

    Block 15 cell size :
        i : 0.27929 .. 0.27929
        j : 0.507457 .. 0.126864
        k : 1 .. 1

    Block 16 cell size :
        i : 0.07071 .. 0.07071
        j : 0.507457 .. 0.126864
        k : 1 .. 1

    Block 17 cell size :
        i : 0.07071 .. 0.07071
        j : 0.454238 .. 0.11356
        k : 1 .. 1

    Block 18 cell size :
        i : 0.270262 .. 1.08105
        j : 0.507457 .. 0.126864
        k : 1 .. 1

    Block 19 cell size :
        i : 0.270262 .. 1.08105
        j : 0.0785183 .. 0.0785183
        k : 1 .. 1

Creating cells
Creating patches

Writing polyMesh
----------------
Mesh Information
----------------
  boundingBox: (-3.5 -3.5 0) (12.5 3.5 1)
  nPoints: 5060
  nCells: 2400
  nFaces: 9730
  nInternalFaces: 4670
----------------
Patches
----------------
  patch 0 (start: 4670 size: 40) name: inlet
  patch 1 (start: 4710 size: 40) name: outlet
  patch 2 (start: 4750 size: 50) name: top
  patch 3 (start: 4800 size: 50) name: bottom
  patch 4 (start: 4850 size: 80) name: cylinder
  patch 5 (start: 4930 size: 4800) name: frontandback

End

/*---------------------------------------------------------------------------*\
  =========                 |
  \\      /  F ield         | OpenFOAM: The Open Source CFD Toolbox
   \\    /   O peration     | Website:  https://openfoam.org
    \\  /    A nd           | Version:  6.0
     \\/     M anipulation  |
\*---------------------------------------------------------------------------*/
Build  : 6.0
Exec   : checkMesh
Date   : May 13 2020
Time   : 09:15:07
Host   : "c401-001.stampede2.tacc.utexas.edu"
PID    : 35710
I/O    : uncollated
Case   : /work/05113/danieler/stampede2/CFD-Final-Project/circular-cylinder-10-20
nProcs : 1
sigFpe : Enabling floating point exception trapping (FOAM_SIGFPE).
fileModificationChecking : Monitoring run-time modified files using timeStampMaster (fileModificationSkew 10)
allowSystemOperations : Allowing user-supplied system call operations

// * * * * * * * * * * * * * * * * * * * * * * * * * * * * * * * * * * * * * //
Create time

Create polyMesh for time = 0

Time = 0

Mesh stats
    points:           5060
    internal points:  0
    faces:            9730
    internal faces:   4670
    cells:            2400
    faces per cell:   6
    boundary patches: 6
    point zones:      0
    face zones:       0
    cell zones:       0

Overall number of cells of each type:
    hexahedra:     2400
    prisms:        0
    wedges:        0
    pyramids:      0
    tet wedges:    0
    tetrahedra:    0
    polyhedra:     0

Checking topology...
    Boundary definition OK.
    Cell to face addressing OK.
    Point usage OK.
    Upper triangular ordering OK.
    Face vertices OK.
    Number of regions: 1 (OK).

Checking patch topology for multiply connected surfaces...
    Patch               Faces    Points   Surface topology                  
    inlet               40       82       ok (non-closed singly connected)  
    outlet              40       82       ok (non-closed singly connected)  
    top                 50       102      ok (non-closed singly connected)  
    bottom              50       102      ok (non-closed singly connected)  
    cylinder            80       160      ok (non-closed singly connected)  
    frontandback        4800     5060     ok (non-closed singly connected)  

Checking geometry...
    Overall domain bounding box (-3.5 -3.5 0) (12.5 3.5 1)
    Mesh has 2 geometric (non-empty/wedge) directions (1 1 0)
    Mesh has 2 solution (non-empty) directions (1 1 0)
    All edges aligned with or perpendicular to non-empty directions.
    Boundary openness (-1.63526e-18 9.40272e-18 -1.04237e-15) OK.
    Max cell openness = 2.18433e-16 OK.
    Max aspect ratio = 15.2885 OK.
    Minimum face area = 0.00205925. Maximum face area = 1.08105.  Face area magnitudes OK.
    Min volume = 0.00205925. Max volume = 0.548585.  Total volume = 111.215.  Cell volumes OK.
    Mesh non-orthogonality Max: 41.969 average: 11.2951
    Non-orthogonality check OK.
    Face pyramids OK.
    Max skewness = 0.47037 OK.
    Coupled point location match (average 0) OK.

Mesh OK.

End

/*---------------------------------------------------------------------------*\
  =========                 |
  \\      /  F ield         | OpenFOAM: The Open Source CFD Toolbox
   \\    /   O peration     | Website:  https://openfoam.org
    \\  /    A nd           | Version:  6.0
     \\/     M anipulation  |
\*---------------------------------------------------------------------------*/
Build  : 6.0
Exec   : decomposePar
Date   : May 13 2020
Time   : 09:15:09
Host   : "c401-001.stampede2.tacc.utexas.edu"
PID    : 35766
I/O    : uncollated
Case   : /work/05113/danieler/stampede2/CFD-Final-Project/circular-cylinder-10-20
nProcs : 1
sigFpe : Enabling floating point exception trapping (FOAM_SIGFPE).
fileModificationChecking : Monitoring run-time modified files using timeStampMaster (fileModificationSkew 10)
allowSystemOperations : Allowing user-supplied system call operations

// * * * * * * * * * * * * * * * * * * * * * * * * * * * * * * * * * * * * * //
Create time



Decomposing mesh region0

Create mesh

Calculating distribution of cells
Selecting decompositionMethod hierarchical

Finished decomposition in 0 s

Calculating original mesh data

Distributing cells to processors

Distributing faces to processors

Distributing points to processors

Constructing processor meshes

Processor 0
    Number of cells = 600
    Number of faces shared with processor 1 = 62
    Number of processor patches = 1
    Number of processor faces = 62
    Number of boundary faces = 1264

Processor 1
    Number of cells = 600
    Number of faces shared with processor 0 = 62
    Number of faces shared with processor 2 = 49
    Number of processor patches = 2
    Number of processor faces = 111
    Number of boundary faces = 1281

Processor 2
    Number of cells = 600
    Number of faces shared with processor 1 = 49
    Number of faces shared with processor 3 = 40
    Number of processor patches = 2
    Number of processor faces = 89
    Number of boundary faces = 1245

Processor 3
    Number of cells = 600
    Number of faces shared with processor 2 = 40
    Number of processor patches = 1
    Number of processor faces = 40
    Number of boundary faces = 1270

Number of processor faces = 151
Max number of cells = 600 (0% above average 600)
Max number of processor patches = 2 (33.3333% above average 1.5)
Max number of faces between processors = 111 (47.0199% above average 75.5)

Time = 0
--> FOAM Warning : 
    From function bool Foam::IOobject::readHeader(Foam::Istream &)
    in file db/IOobject/IOobjectReadHeader.C at line 88
    Reading "/work/05113/danieler/stampede2/CFD-Final-Project/circular-cylinder-10-20/0/log" at line 8
    First token could not be read or is not the keyword 'FoamFile'

Check header is of the form:

/*--------------------------------*- C++ -*----------------------------------*\
  =========                 |
  \\      /  F ield         | OpenFOAM: The Open Source CFD Toolbox
   \\    /   O peration     | Website:  https://openfoam.org
    \\  /    A nd           | Version:  6.0
     \\/     M anipulation  |
\*---------------------------------------------------------------------------*/
FoamFile
{
    version     2.0;
    format      ascii;
    class       IOobject;
    location    "0";
    object      log;
}
// * * * * * * * * * * * * * * * * * * * * * * * * * * * * * * * * * * * * * //


Processor 0: field transfer
Processor 1: field transfer
Processor 2: field transfer
Processor 3: field transfer

End

TACC:  Starting up job 5689998 
TACC:  Starting parallel tasks... 
/*---------------------------------------------------------------------------*\
  =========                 |
  \\      /  F ield         | OpenFOAM: The Open Source CFD Toolbox
   \\    /   O peration     | Website:  https://openfoam.org
    \\  /    A nd           | Version:  6.0
     \\/     M anipulation  |
\*---------------------------------------------------------------------------*/
Build  : 6.0
Exec   : /home1/apps/intel18/impi18_0/OpenFOAM/OpenFOAM-6.0/platforms/linux64IccDPInt32Opt/bin/icoFoam -parallel
Date   : May 13 2020
Time   : 09:15:12
Host   : "c401-001.stampede2.tacc.utexas.edu"
PID    : 35891
I/O    : uncollated
Case   : /work/05113/danieler/stampede2/CFD-Final-Project/circular-cylinder-10-20
nProcs : 4
Slaves : 
3
(
"c401-001.stampede2.tacc.utexas.edu.35892"
"c401-001.stampede2.tacc.utexas.edu.35893"
"c401-001.stampede2.tacc.utexas.edu.35894"
)

Pstream initialized with:
    floatTransfer      : 0
    nProcsSimpleSum    : 0
    commsType          : nonBlocking
    polling iterations : 0
sigFpe : Enabling floating point exception trapping (FOAM_SIGFPE).
fileModificationChecking : Monitoring run-time modified files using timeStampMaster (fileModificationSkew 10)
allowSystemOperations : Allowing user-supplied system call operations

// * * * * * * * * * * * * * * * * * * * * * * * * * * * * * * * * * * * * * //
Create time

Create mesh for time = 0

Reading transportProperties

Reading field p

Reading field U

Reading/calculating face flux field phi


Starting time loop

Time = 0.00825

Courant Number mean: 0.02793 max: 0.246221
smoothSolver:  Solving for Ux, Initial residual = 1, Final residual = 2.49227e-06, No Iterations 6
smoothSolver:  Solving for Uy, Initial residual = 1, Final residual = 3.25114e-06, No Iterations 6
DICPCG:  Solving for p, Initial residual = 1, Final residual = 0.0483372, No Iterations 60
time step continuity errors : sum local = 7.34306e-06, global = -2.11274e-08, cumulative = -2.11274e-08
DICPCG:  Solving for p, Initial residual = 0.202361, Final residual = 8.13138e-07, No Iterations 103
time step continuity errors : sum local = 4.12222e-10, global = -3.94727e-12, cumulative = -2.11314e-08
ExecutionTime = 0.1 s  ClockTime = 0 s

Time = 0.0165

Courant Number mean: 0.0292638 max: 0.73377
smoothSolver:  Solving for Ux, Initial residual = 0.296074, Final residual = 1.99421e-06, No Iterations 5
smoothSolver:  Solving for Uy, Initial residual = 0.322119, Final residual = 3.13435e-06, No Iterations 5
DICPCG:  Solving for p, Initial residual = 0.397158, Final residual = 0.0195747, No Iterations 60
time step continuity errors : sum local = 8.32444e-06, global = 1.94042e-07, cumulative = 1.7291e-07
DICPCG:  Solving for p, Initial residual = 0.558752, Final residual = 7.61909e-07, No Iterations 106
time step continuity errors : sum local = 1.38115e-10, global = 3.84625e-13, cumulative = 1.72911e-07
ExecutionTime = 0.13 s  ClockTime = 0 s

Time = 0.02475

Courant Number mean: 0.0297594 max: 0.972566
smoothSolver:  Solving for Ux, Initial residual = 0.0441403, Final residual = 5.01778e-06, No Iterations 4
smoothSolver:  Solving for Uy, Initial residual = 0.0462422, Final residual = 7.54055e-06, No Iterations 4
DICPCG:  Solving for p, Initial residual = 0.318441, Final residual = 0.0142388, No Iterations 19
time step continuity errors : sum local = 1.55264e-06, global = -4.62236e-08, cumulative = 1.26687e-07
DICPCG:  Solving for p, Initial residual = 0.0510972, Final residual = 7.89462e-07, No Iterations 95
time step continuity errors : sum local = 1.04599e-10, global = -1.1715e-12, cumulative = 1.26686e-07
ExecutionTime = 0.15 s  ClockTime = 0 s

Time = 0.033

Courant Number mean: 0.0301366 max: 1.13828
smoothSolver:  Solving for Ux, Initial residual = 0.0403489, Final residual = 8.0305e-06, No Iterations 4
smoothSolver:  Solving for Uy, Initial residual = 0.0392398, Final residual = 7.95546e-06, No Iterations 4
DICPCG:  Solving for p, Initial residual = 0.201879, Final residual = 0.00923578, No Iterations 12
time step continuity errors : sum local = 1.48111e-06, global = 1.38835e-08, cumulative = 1.4057e-07
DICPCG:  Solving for p, Initial residual = 0.036085, Final residual = 8.95499e-07, No Iterations 93
time step continuity errors : sum local = 1.65157e-10, global = 1.27699e-12, cumulative = 1.40571e-07
ExecutionTime = 0.16 s  ClockTime = 0 s

Time = 0.04125

Courant Number mean: 0.030456 max: 1.25518
smoothSolver:  Solving for Ux, Initial residual = 0.0296082, Final residual = 9.57721e-06, No Iterations 4
smoothSolver:  Solving for Uy, Initial residual = 0.0312439, Final residual = 9.41981e-06, No Iterations 4
DICPCG:  Solving for p, Initial residual = 0.145097, Final residual = 0.0069717, No Iterations 6
time step continuity errors : sum local = 1.42237e-06, global = 3.83848e-09, cumulative = 1.44409e-07
DICPCG:  Solving for p, Initial residual = 0.027354, Final residual = 9.25139e-07, No Iterations 88
time step continuity errors : sum local = 2.09356e-10, global = 2.44864e-12, cumulative = 1.44412e-07
ExecutionTime = 0.18 s  ClockTime = 0 s

Time = 0.0495

Courant Number mean: 0.0307642 max: 1.33902
smoothSolver:  Solving for Ux, Initial residual = 0.0231767, Final residual = 2.79357e-06, No Iterations 5
smoothSolver:  Solving for Uy, Initial residual = 0.0255996, Final residual = 2.48278e-06, No Iterations 5
DICPCG:  Solving for p, Initial residual = 0.10844, Final residual = 0.00453988, No Iterations 6
time step continuity errors : sum local = 1.11038e-06, global = 2.88434e-09, cumulative = 1.47296e-07
DICPCG:  Solving for p, Initial residual = 0.021091, Final residual = 8.51718e-07, No Iterations 87
time step continuity errors : sum local = 2.25229e-10, global = -8.21255e-14, cumulative = 1.47296e-07
ExecutionTime = 0.2 s  ClockTime = 0 s

Time = 0.05775

Courant Number mean: 0.03103 max: 1.39996
smoothSolver:  Solving for Ux, Initial residual = 0.0189736, Final residual = 9.68916e-06, No Iterations 4
smoothSolver:  Solving for Uy, Initial residual = 0.0215265, Final residual = 2.78727e-06, No Iterations 5
DICPCG:  Solving for p, Initial residual = 0.0828789, Final residual = 0.00375183, No Iterations 6
time step continuity errors : sum local = 1.05251e-06, global = 1.42498e-09, cumulative = 1.48721e-07
DICPCG:  Solving for p, Initial residual = 0.0169722, Final residual = 9.24541e-07, No Iterations 88
time step continuity errors : sum local = 2.75597e-10, global = 2.8097e-12, cumulative = 1.48724e-07
ExecutionTime = 0.21 s  ClockTime = 0 s

Time = 0.066

Courant Number mean: 0.0312599 max: 1.44526
smoothSolver:  Solving for Ux, Initial residual = 0.0160245, Final residual = 8.95687e-06, No Iterations 4
smoothSolver:  Solving for Uy, Initial residual = 0.0184768, Final residual = 2.9003e-06, No Iterations 5
DICPCG:  Solving for p, Initial residual = 0.0651088, Final residual = 0.00316685, No Iterations 6
time step continuity errors : sum local = 9.88106e-07, global = 5.5935e-10, cumulative = 1.49283e-07
DICPCG:  Solving for p, Initial residual = 0.0140973, Final residual = 8.47028e-07, No Iterations 88
time step continuity errors : sum local = 2.77234e-10, global = 1.94089e-12, cumulative = 1.49285e-07
ExecutionTime = 0.24 s  ClockTime = 0 s

Time = 0.07425

Courant Number mean: 0.0314633 max: 1.47982
smoothSolver:  Solving for Ux, Initial residual = 0.0138652, Final residual = 8.09697e-06, No Iterations 4
smoothSolver:  Solving for Uy, Initial residual = 0.0161555, Final residual = 2.86193e-06, No Iterations 5
DICPCG:  Solving for p, Initial residual = 0.0523159, Final residual = 0.00231615, No Iterations 7
time step continuity errors : sum local = 7.85927e-07, global = 1.19317e-10, cumulative = 1.49404e-07
DICPCG:  Solving for p, Initial residual = 0.0116603, Final residual = 8.11321e-07, No Iterations 87
time step continuity errors : sum local = 2.85793e-10, global = 1.30423e-13, cumulative = 1.49405e-07
ExecutionTime = 0.25 s  ClockTime = 0 s

Time = 0.0825

Courant Number mean: 0.0316487 max: 1.50688
smoothSolver:  Solving for Ux, Initial residual = 0.0122362, Final residual = 7.26084e-06, No Iterations 4
smoothSolver:  Solving for Uy, Initial residual = 0.0143439, Final residual = 9.3619e-06, No Iterations 4
DICPCG:  Solving for p, Initial residual = 0.0429084, Final residual = 0.00173814, No Iterations 8
time step continuity errors : sum local = 6.30913e-07, global = -7.99566e-11, cumulative = 1.49325e-07
DICPCG:  Solving for p, Initial residual = 0.00999873, Final residual = 7.60788e-07, No Iterations 86
time step continuity errors : sum local = 2.8462e-10, global = -2.63175e-12, cumulative = 1.49322e-07
ExecutionTime = 0.27 s  ClockTime = 0 s

Time = 0.09075

Courant Number mean: 0.0318221 max: 1.52856
smoothSolver:  Solving for Ux, Initial residual = 0.0109854, Final residual = 6.51983e-06, No Iterations 4
smoothSolver:  Solving for Uy, Initial residual = 0.0128921, Final residual = 8.51457e-06, No Iterations 4
DICPCG:  Solving for p, Initial residual = 0.035989, Final residual = 0.00163078, No Iterations 8
time step continuity errors : sum local = 6.25374e-07, global = -1.99073e-10, cumulative = 1.49123e-07
DICPCG:  Solving for p, Initial residual = 0.00891444, Final residual = 8.464e-07, No Iterations 85
time step continuity errors : sum local = 3.32745e-10, global = -1.18984e-12, cumulative = 1.49122e-07
ExecutionTime = 0.28 s  ClockTime = 0 s

Time = 0.099

Courant Number mean: 0.0319904 max: 1.5464
smoothSolver:  Solving for Ux, Initial residual = 0.00999056, Final residual = 5.88255e-06, No Iterations 4
smoothSolver:  Solving for Uy, Initial residual = 0.0117102, Final residual = 7.71398e-06, No Iterations 4
DICPCG:  Solving for p, Initial residual = 0.0307254, Final residual = 0.00151763, No Iterations 8
time step continuity errors : sum local = 6.0914e-07, global = -2.58379e-10, cumulative = 1.48863e-07
DICPCG:  Solving for p, Initial residual = 0.00804122, Final residual = 9.57517e-07, No Iterations 84
time step continuity errors : sum local = 3.925e-10, global = 6.99103e-13, cumulative = 1.48864e-07
ExecutionTime = 0.3 s  ClockTime = 0 s

Time = 0.10725

Courant Number mean: 0.0321586 max: 1.56141
smoothSolver:  Solving for Ux, Initial residual = 0.00917879, Final residual = 5.33737e-06, No Iterations 4
smoothSolver:  Solving for Uy, Initial residual = 0.0107381, Final residual = 6.99153e-06, No Iterations 4
DICPCG:  Solving for p, Initial residual = 0.0265955, Final residual = 0.00128704, No Iterations 10
time step continuity errors : sum local = 5.36989e-07, global = -2.19477e-10, cumulative = 1.48645e-07
DICPCG:  Solving for p, Initial residual = 0.0071251, Final residual = 9.0604e-07, No Iterations 84
time step continuity errors : sum local = 3.84936e-10, global = 2.15986e-12, cumulative = 1.48647e-07
ExecutionTime = 0.31 s  ClockTime = 0 s

Time = 0.1155

Courant Number mean: 0.0323164 max: 1.57427
smoothSolver:  Solving for Ux, Initial residual = 0.00850424, Final residual = 4.86786e-06, No Iterations 4
smoothSolver:  Solving for Uy, Initial residual = 0.00992082, Final residual = 6.36682e-06, No Iterations 4
DICPCG:  Solving for p, Initial residual = 0.0232766, Final residual = 0.00110481, No Iterations 11
time step continuity errors : sum local = 4.76535e-07, global = -2.5083e-10, cumulative = 1.48396e-07
DICPCG:  Solving for p, Initial residual = 0.00660087, Final residual = 8.94172e-07, No Iterations 82
time step continuity errors : sum local = 3.91891e-10, global = 1.26982e-11, cumulative = 1.48409e-07
ExecutionTime = 0.33 s  ClockTime = 0 s

Time = 0.12375

Courant Number mean: 0.0324658 max: 1.58549
smoothSolver:  Solving for Ux, Initial residual = 0.00793719, Final residual = 4.47078e-06, No Iterations 4
smoothSolver:  Solving for Uy, Initial residual = 0.00922561, Final residual = 5.83608e-06, No Iterations 4
DICPCG:  Solving for p, Initial residual = 0.0205813, Final residual = 0.000964816, No Iterations 12
time step continuity errors : sum local = 4.28776e-07, global = -2.80876e-10, cumulative = 1.48128e-07
DICPCG:  Solving for p, Initial residual = 0.00603119, Final residual = 8.56242e-07, No Iterations 79
time step continuity errors : sum local = 3.85951e-10, global = 9.40799e-12, cumulative = 1.48137e-07
ExecutionTime = 0.34 s  ClockTime = 0 s

Time = 0.132

Courant Number mean: 0.0326084 max: 1.59539
smoothSolver:  Solving for Ux, Initial residual = 0.00745336, Final residual = 4.14083e-06, No Iterations 4
smoothSolver:  Solving for Uy, Initial residual = 0.00862455, Final residual = 5.37184e-06, No Iterations 4
DICPCG:  Solving for p, Initial residual = 0.0183894, Final residual = 0.000829808, No Iterations 13
time step continuity errors : sum local = 3.78647e-07, global = -2.56601e-10, cumulative = 1.47881e-07
DICPCG:  Solving for p, Initial residual = 0.00547578, Final residual = 9.5674e-07, No Iterations 78
time step continuity errors : sum local = 4.42053e-10, global = -1.95146e-11, cumulative = 1.47861e-07
ExecutionTime = 0.37 s  ClockTime = 0 s

Time = 0.14025

Courant Number mean: 0.032745 max: 1.60424
smoothSolver:  Solving for Ux, Initial residual = 0.00703071, Final residual = 3.85028e-06, No Iterations 4
smoothSolver:  Solving for Uy, Initial residual = 0.00810135, Final residual = 4.97335e-06, No Iterations 4
DICPCG:  Solving for p, Initial residual = 0.0166821, Final residual = 0.000806514, No Iterations 13
time step continuity errors : sum local = 3.76724e-07, global = -3.29557e-10, cumulative = 1.47531e-07
DICPCG:  Solving for p, Initial residual = 0.00514515, Final residual = 9.27833e-07, No Iterations 74
time step continuity errors : sum local = 4.38261e-10, global = 2.3675e-12, cumulative = 1.47534e-07
ExecutionTime = 0.38 s  ClockTime = 0 s

Time = 0.1485

Courant Number mean: 0.032877 max: 1.61221
smoothSolver:  Solving for Ux, Initial residual = 0.00665795, Final residual = 3.59275e-06, No Iterations 4
smoothSolver:  Solving for Uy, Initial residual = 0.0076439, Final residual = 4.62213e-06, No Iterations 4
DICPCG:  Solving for p, Initial residual = 0.0152986, Final residual = 0.000730223, No Iterations 14
time step continuity errors : sum local = 3.48304e-07, global = -1.40539e-10, cumulative = 1.47393e-07
DICPCG:  Solving for p, Initial residual = 0.00483311, Final residual = 8.93232e-07, No Iterations 76
time step continuity errors : sum local = 4.30378e-10, global = 1.16361e-11, cumulative = 1.47405e-07
ExecutionTime = 0.4 s  ClockTime = 0 s

Time = 0.15675

Courant Number mean: 0.0330054 max: 1.61946
smoothSolver:  Solving for Ux, Initial residual = 0.00632404, Final residual = 3.36333e-06, No Iterations 4
smoothSolver:  Solving for Uy, Initial residual = 0.00723653, Final residual = 4.30982e-06, No Iterations 4
DICPCG:  Solving for p, Initial residual = 0.0141478, Final residual = 0.000663079, No Iterations 15
time step continuity errors : sum local = 3.22304e-07, global = 3.02946e-11, cumulative = 1.47435e-07
DICPCG:  Solving for p, Initial residual = 0.00457766, Final residual = 9.47773e-07, No Iterations 77
time step continuity errors : sum local = 4.64904e-10, global = 2.06332e-11, cumulative = 1.47456e-07
ExecutionTime = 0.41 s  ClockTime = 0 s

Time = 0.165

Courant Number mean: 0.033131 max: 1.62608
smoothSolver:  Solving for Ux, Initial residual = 0.00602481, Final residual = 3.15516e-06, No Iterations 4
smoothSolver:  Solving for Uy, Initial residual = 0.00687062, Final residual = 4.04011e-06, No Iterations 4
DICPCG:  Solving for p, Initial residual = 0.0131619, Final residual = 0.000642432, No Iterations 15
time step continuity errors : sum local = 3.17675e-07, global = 9.75837e-11, cumulative = 1.47553e-07
DICPCG:  Solving for p, Initial residual = 0.00435348, Final residual = 9.17241e-07, No Iterations 82
time step continuity errors : sum local = 4.57361e-10, global = 4.03923e-12, cumulative = 1.47557e-07
ExecutionTime = 0.43 s  ClockTime = 0 s

Time = 0.17325

Courant Number mean: 0.0332551 max: 1.63216
smoothSolver:  Solving for Ux, Initial residual = 0.00575595, Final residual = 9.85269e-06, No Iterations 3
smoothSolver:  Solving for Uy, Initial residual = 0.00654123, Final residual = 3.79925e-06, No Iterations 4
DICPCG:  Solving for p, Initial residual = 0.012309, Final residual = 0.000523079, No Iterations 16
time step continuity errors : sum local = 2.62753e-07, global = 3.59199e-10, cumulative = 1.47917e-07
DICPCG:  Solving for p, Initial residual = 0.00406187, Final residual = 9.87563e-07, No Iterations 78
time step continuity errors : sum local = 4.99894e-10, global = 2.53947e-11, cumulative = 1.47942e-07
ExecutionTime = 0.45 s  ClockTime = 0 s

Time = 0.1815

Courant Number mean: 0.0333793 max: 1.63779
smoothSolver:  Solving for Ux, Initial residual = 0.00550966, Final residual = 9.29195e-06, No Iterations 3
smoothSolver:  Solving for Uy, Initial residual = 0.00624247, Final residual = 3.58114e-06, No Iterations 4
DICPCG:  Solving for p, Initial residual = 0.0115539, Final residual = 0.000510349, No Iterations 16
time step continuity errors : sum local = 2.60102e-07, global = 5.10355e-10, cumulative = 1.48452e-07
DICPCG:  Solving for p, Initial residual = 0.00387172, Final residual = 8.93856e-07, No Iterations 82
time step continuity errors : sum local = 4.58806e-10, global = 5.5298e-12, cumulative = 1.48458e-07
ExecutionTime = 0.47 s  ClockTime = 0 s

Time = 0.18975

Courant Number mean: 0.0335037 max: 1.643
smoothSolver:  Solving for Ux, Initial residual = 0.00528412, Final residual = 8.74667e-06, No Iterations 3
smoothSolver:  Solving for Uy, Initial residual = 0.00597177, Final residual = 3.3821e-06, No Iterations 4
DICPCG:  Solving for p, Initial residual = 0.0108919, Final residual = 0.000489357, No Iterations 16
time step continuity errors : sum local = 2.52782e-07, global = 5.03674e-10, cumulative = 1.48962e-07
DICPCG:  Solving for p, Initial residual = 0.00370401, Final residual = 9.02637e-07, No Iterations 82
time step continuity errors : sum local = 4.69365e-10, global = 4.74593e-12, cumulative = 1.48966e-07
ExecutionTime = 0.48 s  ClockTime = 0 s

Time = 0.198

Courant Number mean: 0.0336246 max: 1.64785
smoothSolver:  Solving for Ux, Initial residual = 0.00507607, Final residual = 8.23838e-06, No Iterations 3
smoothSolver:  Solving for Uy, Initial residual = 0.00572425, Final residual = 3.20306e-06, No Iterations 4
DICPCG:  Solving for p, Initial residual = 0.0102983, Final residual = 0.00048462, No Iterations 16
time step continuity errors : sum local = 2.535e-07, global = 4.96661e-10, cumulative = 1.49463e-07
DICPCG:  Solving for p, Initial residual = 0.00353674, Final residual = 9.23901e-07, No Iterations 82
time step continuity errors : sum local = 4.86292e-10, global = 4.63679e-12, cumulative = 1.49468e-07
ExecutionTime = 0.5 s  ClockTime = 0 s

Time = 0.20625

Courant Number mean: 0.0337429 max: 1.65237
smoothSolver:  Solving for Ux, Initial residual = 0.00488399, Final residual = 7.7697e-06, No Iterations 3
smoothSolver:  Solving for Uy, Initial residual = 0.00549707, Final residual = 9.94692e-06, No Iterations 3
DICPCG:  Solving for p, Initial residual = 0.00976702, Final residual = 0.000475879, No Iterations 16
time step continuity errors : sum local = 2.5189e-07, global = 5.01976e-10, cumulative = 1.4997e-07
DICPCG:  Solving for p, Initial residual = 0.00338929, Final residual = 8.63038e-07, No Iterations 82
time step continuity errors : sum local = 4.59513e-10, global = 3.44091e-12, cumulative = 1.49973e-07
ExecutionTime = 0.51 s  ClockTime = 0 s

Time = 0.2145

Courant Number mean: 0.0338584 max: 1.65664
smoothSolver:  Solving for Ux, Initial residual = 0.00470586, Final residual = 7.3318e-06, No Iterations 3
smoothSolver:  Solving for Uy, Initial residual = 0.00528791, Final residual = 9.47204e-06, No Iterations 3
DICPCG:  Solving for p, Initial residual = 0.00929128, Final residual = 0.0004615, No Iterations 16
time step continuity errors : sum local = 2.47059e-07, global = 5.13026e-10, cumulative = 1.50486e-07
DICPCG:  Solving for p, Initial residual = 0.00324468, Final residual = 8.8844e-07, No Iterations 82
time step continuity errors : sum local = 4.78292e-10, global = 4.36328e-12, cumulative = 1.5049e-07
ExecutionTime = 0.53 s  ClockTime = 0 s

Time = 0.22275

Courant Number mean: 0.0339719 max: 1.66064
smoothSolver:  Solving for Ux, Initial residual = 0.00454087, Final residual = 6.93429e-06, No Iterations 3
smoothSolver:  Solving for Uy, Initial residual = 0.00509474, Final residual = 8.9963e-06, No Iterations 3
DICPCG:  Solving for p, Initial residual = 0.00886292, Final residual = 0.000385972, No Iterations 17
time step continuity errors : sum local = 2.08874e-07, global = 9.7984e-10, cumulative = 1.5147e-07
DICPCG:  Solving for p, Initial residual = 0.00305763, Final residual = 9.80433e-07, No Iterations 81
time step continuity errors : sum local = 5.33494e-10, global = 1.12675e-11, cumulative = 1.51482e-07
ExecutionTime = 0.54 s  ClockTime = 0 s

Time = 0.231

Courant Number mean: 0.0340833 max: 1.6644
smoothSolver:  Solving for Ux, Initial residual = 0.00438634, Final residual = 6.57375e-06, No Iterations 3
smoothSolver:  Solving for Uy, Initial residual = 0.00491632, Final residual = 8.54726e-06, No Iterations 3
DICPCG:  Solving for p, Initial residual = 0.00846437, Final residual = 0.000378281, No Iterations 17
time step continuity errors : sum local = 2.06846e-07, global = 1.12671e-09, cumulative = 1.52608e-07
DICPCG:  Solving for p, Initial residual = 0.00293855, Final residual = 9.99895e-07, No Iterations 77
time step continuity errors : sum local = 5.49584e-10, global = 2.00878e-11, cumulative = 1.52628e-07
ExecutionTime = 0.57 s  ClockTime = 0 s

Time = 0.23925

Courant Number mean: 0.0341926 max: 1.66795
smoothSolver:  Solving for Ux, Initial residual = 0.00424141, Final residual = 6.23803e-06, No Iterations 3
smoothSolver:  Solving for Uy, Initial residual = 0.00475138, Final residual = 8.13256e-06, No Iterations 3
DICPCG:  Solving for p, Initial residual = 0.00810841, Final residual = 0.000368444, No Iterations 17
time step continuity errors : sum local = 2.03446e-07, global = 1.12429e-09, cumulative = 1.53753e-07
DICPCG:  Solving for p, Initial residual = 0.00282634, Final residual = 9.68669e-07, No Iterations 76
time step continuity errors : sum local = 5.37494e-10, global = 1.33213e-11, cumulative = 1.53766e-07
ExecutionTime = 0.58 s  ClockTime = 0 s

Time = 0.2475

Courant Number mean: 0.0343005 max: 1.67131
smoothSolver:  Solving for Ux, Initial residual = 0.00410514, Final residual = 5.92488e-06, No Iterations 3
smoothSolver:  Solving for Uy, Initial residual = 0.00459758, Final residual = 7.7513e-06, No Iterations 3
DICPCG:  Solving for p, Initial residual = 0.00778526, Final residual = 0.000360184, No Iterations 17
time step continuity errors : sum local = 2.00729e-07, global = 1.12757e-09, cumulative = 1.54894e-07
DICPCG:  Solving for p, Initial residual = 0.00272285, Final residual = 9.24924e-07, No Iterations 75
time step continuity errors : sum local = 5.17838e-10, global = 6.11294e-12, cumulative = 1.549e-07
ExecutionTime = 0.63 s  ClockTime = 0 s

Time = 0.25575

Courant Number mean: 0.0344071 max: 1.67449
smoothSolver:  Solving for Ux, Initial residual = 0.00397674, Final residual = 5.63329e-06, No Iterations 3
smoothSolver:  Solving for Uy, Initial residual = 0.00445373, Final residual = 7.39916e-06, No Iterations 3
DICPCG:  Solving for p, Initial residual = 0.00748948, Final residual = 0.000352298, No Iterations 17
time step continuity errors : sum local = 1.98053e-07, global = 1.14392e-09, cumulative = 1.56044e-07
DICPCG:  Solving for p, Initial residual = 0.00262636, Final residual = 9.82096e-07, No Iterations 74
time step continuity errors : sum local = 5.54532e-10, global = 2.09646e-12, cumulative = 1.56046e-07
ExecutionTime = 0.65 s  ClockTime = 0 s

Time = 0.264

Courant Number mean: 0.0345124 max: 1.67751
smoothSolver:  Solving for Ux, Initial residual = 0.00385582, Final residual = 5.36216e-06, No Iterations 3
smoothSolver:  Solving for Uy, Initial residual = 0.00431908, Final residual = 7.07221e-06, No Iterations 3
DICPCG:  Solving for p, Initial residual = 0.00721282, Final residual = 0.00034451, No Iterations 17
time step continuity errors : sum local = 1.95286e-07, global = 1.15876e-09, cumulative = 1.57204e-07
DICPCG:  Solving for p, Initial residual = 0.0025352, Final residual = 8.91042e-07, No Iterations 74
time step continuity errors : sum local = 5.07192e-10, global = 1.16489e-13, cumulative = 1.57205e-07
ExecutionTime = 0.66 s  ClockTime = 0 s

Time = 0.27225

Courant Number mean: 0.0346169 max: 1.6804
smoothSolver:  Solving for Ux, Initial residual = 0.00374166, Final residual = 5.10945e-06, No Iterations 3
smoothSolver:  Solving for Uy, Initial residual = 0.00419255, Final residual = 6.76818e-06, No Iterations 3
DICPCG:  Solving for p, Initial residual = 0.00695142, Final residual = 0.000337219, No Iterations 17
time step continuity errors : sum local = 1.92669e-07, global = 1.17515e-09, cumulative = 1.5838e-07
DICPCG:  Solving for p, Initial residual = 0.00244964, Final residual = 8.11689e-07, No Iterations 74
time step continuity errors : sum local = 4.65599e-10, global = -1.79852e-12, cumulative = 1.58378e-07
ExecutionTime = 0.68 s  ClockTime = 0 s

Time = 0.2805

Courant Number mean: 0.0347209 max: 1.68315
smoothSolver:  Solving for Ux, Initial residual = 0.00363431, Final residual = 4.87457e-06, No Iterations 3
smoothSolver:  Solving for Uy, Initial residual = 0.00407367, Final residual = 6.48476e-06, No Iterations 3
DICPCG:  Solving for p, Initial residual = 0.00670629, Final residual = 0.000330449, No Iterations 17
time step continuity errors : sum local = 1.90237e-07, global = 1.18888e-09, cumulative = 1.59567e-07
DICPCG:  Solving for p, Initial residual = 0.00236948, Final residual = 9.20795e-07, No Iterations 73
time step continuity errors : sum local = 5.32119e-10, global = -1.60826e-12, cumulative = 1.59565e-07
ExecutionTime = 0.7 s  ClockTime = 0 s

Time = 0.28875

Courant Number mean: 0.0348258 max: 1.68577
smoothSolver:  Solving for Ux, Initial residual = 0.00353272, Final residual = 4.65573e-06, No Iterations 3
smoothSolver:  Solving for Uy, Initial residual = 0.00396188, Final residual = 6.22211e-06, No Iterations 3
DICPCG:  Solving for p, Initial residual = 0.00647484, Final residual = 0.000268239, No Iterations 18
time step continuity errors : sum local = 1.55559e-07, global = 1.76018e-09, cumulative = 1.61325e-07
DICPCG:  Solving for p, Initial residual = 0.00226211, Final residual = 8.4219e-07, No Iterations 73
time step continuity errors : sum local = 4.90213e-10, global = -2.34918e-12, cumulative = 1.61323e-07
ExecutionTime = 0.71 s  ClockTime = 1 s

Time = 0.297

Courant Number mean: 0.0349294 max: 1.68828
smoothSolver:  Solving for Ux, Initial residual = 0.00343577, Final residual = 4.45222e-06, No Iterations 3
smoothSolver:  Solving for Uy, Initial residual = 0.00385647, Final residual = 5.97663e-06, No Iterations 3
DICPCG:  Solving for p, Initial residual = 0.00625414, Final residual = 0.000263698, No Iterations 18
time step continuity errors : sum local = 1.54008e-07, global = 1.81553e-09, cumulative = 1.63139e-07
DICPCG:  Solving for p, Initial residual = 0.00219172, Final residual = 7.87466e-07, No Iterations 73
time step continuity errors : sum local = 4.61554e-10, global = -3.90208e-12, cumulative = 1.63135e-07
ExecutionTime = 0.73 s  ClockTime = 1 s

Time = 0.30525

Courant Number mean: 0.0350316 max: 1.69068
smoothSolver:  Solving for Ux, Initial residual = 0.00334347, Final residual = 4.26599e-06, No Iterations 3
smoothSolver:  Solving for Uy, Initial residual = 0.00375763, Final residual = 5.74951e-06, No Iterations 3
DICPCG:  Solving for p, Initial residual = 0.00604832, Final residual = 0.000256922, No Iterations 18
time step continuity errors : sum local = 1.51073e-07, global = 1.83042e-09, cumulative = 1.64965e-07
DICPCG:  Solving for p, Initial residual = 0.00212423, Final residual = 7.65915e-07, No Iterations 73
time step continuity errors : sum local = 4.51908e-10, global = -5.03814e-12, cumulative = 1.6496e-07
ExecutionTime = 0.74 s  ClockTime = 1 s

Time = 0.3135

Courant Number mean: 0.0351324 max: 1.69298
smoothSolver:  Solving for Ux, Initial residual = 0.00325559, Final residual = 4.09211e-06, No Iterations 3
smoothSolver:  Solving for Uy, Initial residual = 0.00366441, Final residual = 5.53891e-06, No Iterations 3
DICPCG:  Solving for p, Initial residual = 0.00585342, Final residual = 0.000248688, No Iterations 18
time step continuity errors : sum local = 1.47184e-07, global = 1.85283e-09, cumulative = 1.66813e-07
DICPCG:  Solving for p, Initial residual = 0.00205834, Final residual = 7.22053e-07, No Iterations 73
time step continuity errors : sum local = 4.28739e-10, global = -5.85597e-12, cumulative = 1.66807e-07
ExecutionTime = 0.76 s  ClockTime = 1 s

Time = 0.32175

Courant Number mean: 0.035232 max: 1.69519
smoothSolver:  Solving for Ux, Initial residual = 0.00317173, Final residual = 3.92859e-06, No Iterations 3
smoothSolver:  Solving for Uy, Initial residual = 0.00357663, Final residual = 5.34148e-06, No Iterations 3
DICPCG:  Solving for p, Initial residual = 0.00566846, Final residual = 0.000237595, No Iterations 18
time step continuity errors : sum local = 1.41496e-07, global = 1.88291e-09, cumulative = 1.6869e-07
DICPCG:  Solving for p, Initial residual = 0.00199316, Final residual = 7.13059e-07, No Iterations 73
time step continuity errors : sum local = 4.25982e-10, global = -6.18675e-12, cumulative = 1.68684e-07
ExecutionTime = 0.77 s  ClockTime = 1 s

Time = 0.33

Courant Number mean: 0.0353304 max: 1.69731
smoothSolver:  Solving for Ux, Initial residual = 0.00309147, Final residual = 3.77441e-06, No Iterations 3
smoothSolver:  Solving for Uy, Initial residual = 0.00349372, Final residual = 5.15954e-06, No Iterations 3
DICPCG:  Solving for p, Initial residual = 0.00549259, Final residual = 0.000240261, No Iterations 18
time step continuity errors : sum local = 1.4394e-07, global = 1.857e-09, cumulative = 1.70541e-07
DICPCG:  Solving for p, Initial residual = 0.00194338, Final residual = 7.16844e-07, No Iterations 73
time step continuity errors : sum local = 4.3075e-10, global = -5.78397e-12, cumulative = 1.70535e-07
ExecutionTime = 0.79 s  ClockTime = 1 s

Time = 0.33825

Courant Number mean: 0.0354278 max: 1.69935
smoothSolver:  Solving for Ux, Initial residual = 0.00301478, Final residual = 3.62928e-06, No Iterations 3
smoothSolver:  Solving for Uy, Initial residual = 0.00341522, Final residual = 4.99178e-06, No Iterations 3
DICPCG:  Solving for p, Initial residual = 0.00532612, Final residual = 0.000237379, No Iterations 18
time step continuity errors : sum local = 1.43032e-07, global = 1.87011e-09, cumulative = 1.72405e-07
DICPCG:  Solving for p, Initial residual = 0.0018917, Final residual = 7.14744e-07, No Iterations 73
time step continuity errors : sum local = 4.31912e-10, global = -5.30707e-12, cumulative = 1.724e-07
ExecutionTime = 0.81 s  ClockTime = 1 s

Time = 0.3465

Courant Number mean: 0.0355238 max: 1.70131
smoothSolver:  Solving for Ux, Initial residual = 0.00294174, Final residual = 3.492e-06, No Iterations 3
smoothSolver:  Solving for Uy, Initial residual = 0.00334096, Final residual = 4.83406e-06, No Iterations 3
DICPCG:  Solving for p, Initial residual = 0.00516739, Final residual = 0.000231716, No Iterations 18
time step continuity errors : sum local = 1.40395e-07, global = 1.88274e-09, cumulative = 1.74283e-07
DICPCG:  Solving for p, Initial residual = 0.00183981, Final residual = 7.24242e-07, No Iterations 73
time step continuity errors : sum local = 4.40041e-10, global = -4.53682e-12, cumulative = 1.74278e-07
ExecutionTime = 0.83 s  ClockTime = 1 s

Time = 0.35475

Courant Number mean: 0.035619 max: 1.70321
smoothSolver:  Solving for Ux, Initial residual = 0.00287185, Final residual = 3.36688e-06, No Iterations 3
smoothSolver:  Solving for Uy, Initial residual = 0.00327076, Final residual = 4.68556e-06, No Iterations 3
DICPCG:  Solving for p, Initial residual = 0.00501623, Final residual = 0.000225115, No Iterations 18
time step continuity errors : sum local = 1.37128e-07, global = 1.89948e-09, cumulative = 1.76177e-07
DICPCG:  Solving for p, Initial residual = 0.0017888, Final residual = 7.2856e-07, No Iterations 73
time step continuity errors : sum local = 4.45003e-10, global = -3.6014e-12, cumulative = 1.76174e-07
ExecutionTime = 0.84 s  ClockTime = 1 s

Time = 0.363

Courant Number mean: 0.035713 max: 1.70504
smoothSolver:  Solving for Ux, Initial residual = 0.00280497, Final residual = 3.25084e-06, No Iterations 3
smoothSolver:  Solving for Uy, Initial residual = 0.00320433, Final residual = 4.54533e-06, No Iterations 3
DICPCG:  Solving for p, Initial residual = 0.00487248, Final residual = 0.00021908, No Iterations 18
time step continuity errors : sum local = 1.34144e-07, global = 1.91669e-09, cumulative = 1.78091e-07
DICPCG:  Solving for p, Initial residual = 0.00174007, Final residual = 7.39562e-07, No Iterations 73
time step continuity errors : sum local = 4.54021e-10, global = -2.6733e-12, cumulative = 1.78088e-07
ExecutionTime = 0.86 s  ClockTime = 1 s

Time = 0.37125

Courant Number mean: 0.0358061 max: 1.7068
smoothSolver:  Solving for Ux, Initial residual = 0.00274112, Final residual = 3.14097e-06, No Iterations 3
smoothSolver:  Solving for Uy, Initial residual = 0.00314149, Final residual = 4.41268e-06, No Iterations 3
DICPCG:  Solving for p, Initial residual = 0.0047383, Final residual = 0.000216458, No Iterations 18
time step continuity errors : sum local = 1.33201e-07, global = 1.91533e-09, cumulative = 1.80003e-07
DICPCG:  Solving for p, Initial residual = 0.00169794, Final residual = 7.53624e-07, No Iterations 73
time step continuity errors : sum local = 4.64924e-10, global = -1.6051e-12, cumulative = 1.80002e-07
ExecutionTime = 0.87 s  ClockTime = 1 s

Time = 0.3795

Courant Number mean: 0.0358991 max: 1.70851
smoothSolver:  Solving for Ux, Initial residual = 0.00268012, Final residual = 3.03677e-06, No Iterations 3
smoothSolver:  Solving for Uy, Initial residual = 0.00308201, Final residual = 4.28713e-06, No Iterations 3
DICPCG:  Solving for p, Initial residual = 0.00461257, Final residual = 0.000212779, No Iterations 18
time step continuity errors : sum local = 1.31568e-07, global = 1.92e-09, cumulative = 1.81922e-07
DICPCG:  Solving for p, Initial residual = 0.00165543, Final residual = 7.57321e-07, No Iterations 73
time step continuity errors : sum local = 4.69412e-10, global = -6.47369e-13, cumulative = 1.81921e-07
ExecutionTime = 0.88 s  ClockTime = 1 s

Time = 0.38775

Courant Number mean: 0.0359912 max: 1.71016
smoothSolver:  Solving for Ux, Initial residual = 0.00262186, Final residual = 2.93836e-06, No Iterations 3
smoothSolver:  Solving for Uy, Initial residual = 0.00302541, Final residual = 4.16812e-06, No Iterations 3
DICPCG:  Solving for p, Initial residual = 0.00449274, Final residual = 0.00021331, No Iterations 18
time step continuity errors : sum local = 1.3251e-07, global = 1.91239e-09, cumulative = 1.83833e-07
DICPCG:  Solving for p, Initial residual = 0.00162031, Final residual = 7.65363e-07, No Iterations 73
time step continuity errors : sum local = 4.76563e-10, global = 4.22296e-13, cumulative = 1.83834e-07
ExecutionTime = 0.9 s  ClockTime = 1 s

Time = 0.396

Courant Number mean: 0.0360829 max: 1.71176
smoothSolver:  Solving for Ux, Initial residual = 0.00256649, Final residual = 2.84533e-06, No Iterations 3
smoothSolver:  Solving for Uy, Initial residual = 0.00297146, Final residual = 4.05516e-06, No Iterations 3
DICPCG:  Solving for p, Initial residual = 0.00437946, Final residual = 0.000209068, No Iterations 18
time step continuity errors : sum local = 1.30458e-07, global = 1.92163e-09, cumulative = 1.85755e-07
DICPCG:  Solving for p, Initial residual = 0.00158149, Final residual = 7.69902e-07, No Iterations 73
time step continuity errors : sum local = 4.81503e-10, global = 1.09645e-12, cumulative = 1.85757e-07
ExecutionTime = 0.91 s  ClockTime = 1 s

Time = 0.40425

Courant Number mean: 0.0361745 max: 1.71331
smoothSolver:  Solving for Ux, Initial residual = 0.00251419, Final residual = 2.75679e-06, No Iterations 3
smoothSolver:  Solving for Uy, Initial residual = 0.00291981, Final residual = 3.94808e-06, No Iterations 3
DICPCG:  Solving for p, Initial residual = 0.00427091, Final residual = 0.000204451, No Iterations 18
time step continuity errors : sum local = 1.28129e-07, global = 1.93478e-09, cumulative = 1.87691e-07
DICPCG:  Solving for p, Initial residual = 0.00154284, Final residual = 7.66719e-07, No Iterations 73
time step continuity errors : sum local = 4.81552e-10, global = 1.83555e-12, cumulative = 1.87693e-07
ExecutionTime = 0.93 s  ClockTime = 1 s

Time = 0.4125

Courant Number mean: 0.0362665 max: 1.71481
smoothSolver:  Solving for Ux, Initial residual = 0.00246386, Final residual = 2.67328e-06, No Iterations 3
smoothSolver:  Solving for Uy, Initial residual = 0.0028704, Final residual = 3.84697e-06, No Iterations 3
DICPCG:  Solving for p, Initial residual = 0.00416751, Final residual = 0.00020075, No Iterations 18
time step continuity errors : sum local = 1.26337e-07, global = 1.93615e-09, cumulative = 1.89629e-07
DICPCG:  Solving for p, Initial residual = 0.00150789, Final residual = 7.62866e-07, No Iterations 73
time step continuity errors : sum local = 4.81104e-10, global = 2.27472e-12, cumulative = 1.89632e-07
ExecutionTime = 0.95 s  ClockTime = 1 s

Time = 0.42075

Courant Number mean: 0.0363574 max: 1.71627
smoothSolver:  Solving for Ux, Initial residual = 0.0024153, Final residual = 2.59375e-06, No Iterations 3
smoothSolver:  Solving for Uy, Initial residual = 0.0028229, Final residual = 3.75101e-06, No Iterations 3
DICPCG:  Solving for p, Initial residual = 0.00406937, Final residual = 0.000196112, No Iterations 18
time step continuity errors : sum local = 1.23919e-07, global = 1.94831e-09, cumulative = 1.9158e-07
DICPCG:  Solving for p, Initial residual = 0.0014718, Final residual = 7.52008e-07, No Iterations 73
time step continuity errors : sum local = 4.76149e-10, global = 2.81912e-12, cumulative = 1.91583e-07
ExecutionTime = 0.96 s  ClockTime = 1 s

Time = 0.429

Courant Number mean: 0.0364472 max: 1.71769
smoothSolver:  Solving for Ux, Initial residual = 0.00236852, Final residual = 2.51775e-06, No Iterations 3
smoothSolver:  Solving for Uy, Initial residual = 0.00277739, Final residual = 3.66218e-06, No Iterations 3
DICPCG:  Solving for p, Initial residual = 0.00397523, Final residual = 0.00019712, No Iterations 18
time step continuity errors : sum local = 1.25045e-07, global = 1.93636e-09, cumulative = 1.93519e-07
DICPCG:  Solving for p, Initial residual = 0.00144469, Final residual = 7.43869e-07, No Iterations 73
time step continuity errors : sum local = 4.72818e-10, global = 3.10534e-12, cumulative = 1.93522e-07
ExecutionTime = 0.98 s  ClockTime = 1 s

Time = 0.43725

Courant Number mean: 0.0365362 max: 1.71907
smoothSolver:  Solving for Ux, Initial residual = 0.00232344, Final residual = 9.76262e-06, No Iterations 2
smoothSolver:  Solving for Uy, Initial residual = 0.00273423, Final residual = 3.57776e-06, No Iterations 3
DICPCG:  Solving for p, Initial residual = 0.00389512, Final residual = 0.000193329, No Iterations 18
time step continuity errors : sum local = 1.23108e-07, global = 1.96412e-09, cumulative = 1.95486e-07
DICPCG:  Solving for p, Initial residual = 0.00143805, Final residual = 8.15565e-07, No Iterations 73
time step continuity errors : sum local = 5.20333e-10, global = 7.12099e-12, cumulative = 1.95493e-07
ExecutionTime = 0.99 s  ClockTime = 1 s

Time = 0.4455

Courant Number mean: 0.0366241 max: 1.72043
smoothSolver:  Solving for Ux, Initial residual = 0.00227985, Final residual = 9.43522e-06, No Iterations 2
smoothSolver:  Solving for Uy, Initial residual = 0.0026927, Final residual = 3.49795e-06, No Iterations 3
DICPCG:  Solving for p, Initial residual = 0.00380892, Final residual = 0.000189518, No Iterations 18
time step continuity errors : sum local = 1.21129e-07, global = 1.96392e-09, cumulative = 1.97457e-07
DICPCG:  Solving for p, Initial residual = 0.00141271, Final residual = 8.1486e-07, No Iterations 73
time step continuity errors : sum local = 5.21786e-10, global = 7.56333e-12, cumulative = 1.97465e-07
ExecutionTime = 1.01 s  ClockTime = 1 s

Time = 0.45375

Courant Number mean: 0.0367118 max: 1.72174
smoothSolver:  Solving for Ux, Initial residual = 0.0022379, Final residual = 9.16941e-06, No Iterations 2
smoothSolver:  Solving for Uy, Initial residual = 0.0026528, Final residual = 3.42234e-06, No Iterations 3
DICPCG:  Solving for p, Initial residual = 0.00372662, Final residual = 0.000186206, No Iterations 18
time step continuity errors : sum local = 1.19442e-07, global = 1.96691e-09, cumulative = 1.99432e-07
DICPCG:  Solving for p, Initial residual = 0.00138476, Final residual = 8.09193e-07, No Iterations 73
time step continuity errors : sum local = 5.2e-10, global = 8.04549e-12, cumulative = 1.9944e-07
ExecutionTime = 1.02 s  ClockTime = 1 s

Time = 0.462

Courant Number mean: 0.0367984 max: 1.72302
smoothSolver:  Solving for Ux, Initial residual = 0.0021974, Final residual = 8.92463e-06, No Iterations 2
smoothSolver:  Solving for Uy, Initial residual = 0.00261427, Final residual = 3.34921e-06, No Iterations 3
DICPCG:  Solving for p, Initial residual = 0.00364779, Final residual = 0.000182387, No Iterations 18
time step continuity errors : sum local = 1.17405e-07, global = 1.97508e-09, cumulative = 2.01415e-07
DICPCG:  Solving for p, Initial residual = 0.00135517, Final residual = 7.9874e-07, No Iterations 73
time step continuity errors : sum local = 5.15071e-10, global = 8.00053e-12, cumulative = 2.01423e-07
ExecutionTime = 1.04 s  ClockTime = 1 s

Time = 0.47025

Courant Number mean: 0.0368843 max: 1.72427
smoothSolver:  Solving for Ux, Initial residual = 0.00215831, Final residual = 8.69129e-06, No Iterations 2
smoothSolver:  Solving for Uy, Initial residual = 0.00257719, Final residual = 3.27907e-06, No Iterations 3
DICPCG:  Solving for p, Initial residual = 0.00357197, Final residual = 0.000136157, No Iterations 19
time step continuity errors : sum local = 8.79478e-08, global = 2.36229e-09, cumulative = 2.03785e-07
DICPCG:  Solving for p, Initial residual = 0.00131274, Final residual = 7.75719e-07, No Iterations 73
time step continuity errors : sum local = 5.01931e-10, global = 7.56293e-12, cumulative = 2.03793e-07
ExecutionTime = 1.05 s  ClockTime = 1 s

Time = 0.4785

Courant Number mean: 0.0369696 max: 1.72548
smoothSolver:  Solving for Ux, Initial residual = 0.00212046, Final residual = 8.46721e-06, No Iterations 2
smoothSolver:  Solving for Uy, Initial residual = 0.00254164, Final residual = 3.21256e-06, No Iterations 3
DICPCG:  Solving for p, Initial residual = 0.00349794, Final residual = 0.000131407, No Iterations 19
time step continuity errors : sum local = 8.51665e-08, global = 2.31559e-09, cumulative = 2.06108e-07
DICPCG:  Solving for p, Initial residual = 0.00128425, Final residual = 7.45923e-07, No Iterations 73
time step continuity errors : sum local = 4.8426e-10, global = 7.47529e-12, cumulative = 2.06116e-07
ExecutionTime = 1.06 s  ClockTime = 1 s

Time = 0.48675

Courant Number mean: 0.0370539 max: 1.72667
smoothSolver:  Solving for Ux, Initial residual = 0.00208394, Final residual = 8.25156e-06, No Iterations 2
smoothSolver:  Solving for Uy, Initial residual = 0.00250722, Final residual = 3.14885e-06, No Iterations 3
DICPCG:  Solving for p, Initial residual = 0.003428, Final residual = 0.000129286, No Iterations 19
time step continuity errors : sum local = 8.40676e-08, global = 2.32893e-09, cumulative = 2.08445e-07
DICPCG:  Solving for p, Initial residual = 0.00125932, Final residual = 7.5789e-07, No Iterations 73
time step continuity errors : sum local = 4.93628e-10, global = 7.40973e-12, cumulative = 2.08452e-07
ExecutionTime = 1.08 s  ClockTime = 1 s

Time = 0.495

Courant Number mean: 0.0371376 max: 1.72783
smoothSolver:  Solving for Ux, Initial residual = 0.00204861, Final residual = 8.04416e-06, No Iterations 2
smoothSolver:  Solving for Uy, Initial residual = 0.002474, Final residual = 3.08756e-06, No Iterations 3
DICPCG:  Solving for p, Initial residual = 0.00336117, Final residual = 0.000126553, No Iterations 19
time step continuity errors : sum local = 8.2555e-08, global = 2.32914e-09, cumulative = 2.10781e-07
DICPCG:  Solving for p, Initial residual = 0.00123489, Final residual = 7.34164e-07, No Iterations 73
time step continuity errors : sum local = 4.79689e-10, global = 7.33358e-12, cumulative = 2.10789e-07
ExecutionTime = 1.1 s  ClockTime = 1 s

Time = 0.50325

Courant Number mean: 0.0372209 max: 1.72896
smoothSolver:  Solving for Ux, Initial residual = 0.00201457, Final residual = 7.84768e-06, No Iterations 2
smoothSolver:  Solving for Uy, Initial residual = 0.00244195, Final residual = 3.02861e-06, No Iterations 3
DICPCG:  Solving for p, Initial residual = 0.00329665, Final residual = 0.000125945, No Iterations 19
time step continuity errors : sum local = 8.24151e-08, global = 2.31752e-09, cumulative = 2.13106e-07
DICPCG:  Solving for p, Initial residual = 0.00121342, Final residual = 7.43108e-07, No Iterations 73
time step continuity errors : sum local = 4.8703e-10, global = 7.31077e-12, cumulative = 2.13113e-07
ExecutionTime = 1.14 s  ClockTime = 1 s

Time = 0.5115

Courant Number mean: 0.0373037 max: 1.73007
smoothSolver:  Solving for Ux, Initial residual = 0.00198184, Final residual = 7.66e-06, No Iterations 2
smoothSolver:  Solving for Uy, Initial residual = 0.00241087, Final residual = 2.97212e-06, No Iterations 3
DICPCG:  Solving for p, Initial residual = 0.00323473, Final residual = 0.00012583, No Iterations 19
time step continuity errors : sum local = 8.25902e-08, global = 2.32718e-09, cumulative = 2.15441e-07
DICPCG:  Solving for p, Initial residual = 0.00119303, Final residual = 9.83626e-07, No Iterations 72
time step continuity errors : sum local = 6.46597e-10, global = 9.69142e-12, cumulative = 2.1545e-07
ExecutionTime = 1.16 s  ClockTime = 1 s

Time = 0.51975

Courant Number mean: 0.0373861 max: 1.73116
smoothSolver:  Solving for Ux, Initial residual = 0.00195068, Final residual = 7.47929e-06, No Iterations 2
smoothSolver:  Solving for Uy, Initial residual = 0.00238091, Final residual = 2.9178e-06, No Iterations 3
DICPCG:  Solving for p, Initial residual = 0.00317464, Final residual = 0.000126239, No Iterations 19
time step continuity errors : sum local = 8.31038e-08, global = 2.28233e-09, cumulative = 2.17733e-07
DICPCG:  Solving for p, Initial residual = 0.00117373, Final residual = 9.99171e-07, No Iterations 72
time step continuity errors : sum local = 6.58734e-10, global = 9.53082e-12, cumulative = 2.17742e-07
ExecutionTime = 1.17 s  ClockTime = 1 s

Time = 0.528

Courant Number mean: 0.0374683 max: 1.73222
smoothSolver:  Solving for Ux, Initial residual = 0.00192066, Final residual = 7.30523e-06, No Iterations 2
smoothSolver:  Solving for Uy, Initial residual = 0.00235201, Final residual = 2.86549e-06, No Iterations 3
DICPCG:  Solving for p, Initial residual = 0.00311642, Final residual = 0.000124809, No Iterations 19
time step continuity errors : sum local = 8.23994e-08, global = 2.30937e-09, cumulative = 2.20052e-07
DICPCG:  Solving for p, Initial residual = 0.00115242, Final residual = 7.33241e-07, No Iterations 73
time step continuity errors : sum local = 4.84785e-10, global = 6.94879e-12, cumulative = 2.20058e-07
ExecutionTime = 1.18 s  ClockTime = 1 s

Time = 0.53625

Courant Number mean: 0.0375498 max: 1.73327
smoothSolver:  Solving for Ux, Initial residual = 0.00189157, Final residual = 7.13737e-06, No Iterations 2
smoothSolver:  Solving for Uy, Initial residual = 0.00232404, Final residual = 2.81516e-06, No Iterations 3
DICPCG:  Solving for p, Initial residual = 0.0030594, Final residual = 0.000123775, No Iterations 19
time step continuity errors : sum local = 8.19454e-08, global = 2.26302e-09, cumulative = 2.22322e-07
DICPCG:  Solving for p, Initial residual = 0.00113319, Final residual = 9.52474e-07, No Iterations 72
time step continuity errors : sum local = 6.31473e-10, global = 8.68861e-12, cumulative = 2.2233e-07
ExecutionTime = 1.2 s  ClockTime = 1 s

Time = 0.5445

Courant Number mean: 0.0376314 max: 1.73429
smoothSolver:  Solving for Ux, Initial residual = 0.00186339, Final residual = 6.97585e-06, No Iterations 2
smoothSolver:  Solving for Uy, Initial residual = 0.00229712, Final residual = 2.76665e-06, No Iterations 3
DICPCG:  Solving for p, Initial residual = 0.00300447, Final residual = 0.000122237, No Iterations 19
time step continuity errors : sum local = 8.11486e-08, global = 2.29494e-09, cumulative = 2.24625e-07
DICPCG:  Solving for p, Initial residual = 0.00111342, Final residual = 9.87216e-07, No Iterations 72
time step continuity errors : sum local = 6.56277e-10, global = 8.8798e-12, cumulative = 2.24634e-07
ExecutionTime = 1.22 s  ClockTime = 1 s

Time = 0.55275

Courant Number mean: 0.0377133 max: 1.73529
smoothSolver:  Solving for Ux, Initial residual = 0.00183619, Final residual = 6.82045e-06, No Iterations 2
smoothSolver:  Solving for Uy, Initial residual = 0.00227104, Final residual = 2.72012e-06, No Iterations 3
DICPCG:  Solving for p, Initial residual = 0.00295122, Final residual = 0.000120704, No Iterations 19
time step continuity errors : sum local = 8.03452e-08, global = 2.25045e-09, cumulative = 2.26884e-07
DICPCG:  Solving for p, Initial residual = 0.0010947, Final residual = 9.76846e-07, No Iterations 72
time step continuity errors : sum local = 6.51094e-10, global = 8.494e-12, cumulative = 2.26893e-07
ExecutionTime = 1.23 s  ClockTime = 1 s

Time = 0.561

Courant Number mean: 0.0377942 max: 1.73628
smoothSolver:  Solving for Ux, Initial residual = 0.00180991, Final residual = 6.67069e-06, No Iterations 2
smoothSolver:  Solving for Uy, Initial residual = 0.0022458, Final residual = 2.67584e-06, No Iterations 3
DICPCG:  Solving for p, Initial residual = 0.00289941, Final residual = 0.000119355, No Iterations 19
time step continuity errors : sum local = 7.9655e-08, global = 2.28116e-09, cumulative = 2.29174e-07
DICPCG:  Solving for p, Initial residual = 0.00107639, Final residual = 9.68808e-07, No Iterations 72
time step continuity errors : sum local = 6.47404e-10, global = 8.21863e-12, cumulative = 2.29182e-07
ExecutionTime = 1.25 s  ClockTime = 1 s

Time = 0.56925

Courant Number mean: 0.0378745 max: 1.73725
smoothSolver:  Solving for Ux, Initial residual = 0.00178462, Final residual = 6.52632e-06, No Iterations 2
smoothSolver:  Solving for Uy, Initial residual = 0.0022215, Final residual = 2.63401e-06, No Iterations 3
DICPCG:  Solving for p, Initial residual = 0.00284919, Final residual = 0.000118019, No Iterations 19
time step continuity errors : sum local = 7.8965e-08, global = 2.23589e-09, cumulative = 2.31418e-07
DICPCG:  Solving for p, Initial residual = 0.00105875, Final residual = 9.58806e-07, No Iterations 72
time step continuity errors : sum local = 6.42346e-10, global = 7.80614e-12, cumulative = 2.31426e-07
ExecutionTime = 1.26 s  ClockTime = 1 s

Time = 0.5775

Courant Number mean: 0.0379541 max: 1.7382
smoothSolver:  Solving for Ux, Initial residual = 0.00176009, Final residual = 6.38697e-06, No Iterations 2
smoothSolver:  Solving for Uy, Initial residual = 0.00219818, Final residual = 9.95014e-06, No Iterations 2
DICPCG:  Solving for p, Initial residual = 0.00282248, Final residual = 0.000117605, No Iterations 19
time step continuity errors : sum local = 7.88879e-08, global = 2.2617e-09, cumulative = 2.33688e-07
DICPCG:  Solving for p, Initial residual = 0.00108235, Final residual = 9.61638e-07, No Iterations 72
time step continuity errors : sum local = 6.4587e-10, global = 8.08264e-12, cumulative = 2.33696e-07
ExecutionTime = 1.27 s  ClockTime = 1 s

Time = 0.58575

Courant Number mean: 0.038033 max: 1.73912
smoothSolver:  Solving for Ux, Initial residual = 0.00173621, Final residual = 6.25589e-06, No Iterations 2
smoothSolver:  Solving for Uy, Initial residual = 0.00217605, Final residual = 9.69303e-06, No Iterations 2
DICPCG:  Solving for p, Initial residual = 0.0027697, Final residual = 0.000116153, No Iterations 19
time step continuity errors : sum local = 7.81079e-08, global = 2.21564e-09, cumulative = 2.35911e-07
DICPCG:  Solving for p, Initial residual = 0.00107072, Final residual = 9.48528e-07, No Iterations 72
time step continuity errors : sum local = 6.38639e-10, global = 7.58631e-12, cumulative = 2.35919e-07
ExecutionTime = 1.28 s  ClockTime = 1 s

Time = 0.594

Courant Number mean: 0.0381116 max: 1.74004
smoothSolver:  Solving for Ux, Initial residual = 0.00171306, Final residual = 6.12524e-06, No Iterations 2
smoothSolver:  Solving for Uy, Initial residual = 0.00215481, Final residual = 9.52071e-06, No Iterations 2
DICPCG:  Solving for p, Initial residual = 0.00272499, Final residual = 0.000114905, No Iterations 19
time step continuity errors : sum local = 7.74585e-08, global = 2.24369e-09, cumulative = 2.38163e-07
DICPCG:  Solving for p, Initial residual = 0.00105479, Final residual = 9.36294e-07, No Iterations 72
time step continuity errors : sum local = 6.31939e-10, global = 7.38073e-12, cumulative = 2.3817e-07
ExecutionTime = 1.31 s  ClockTime = 1 s

Time = 0.60225

Courant Number mean: 0.0381896 max: 1.74095
smoothSolver:  Solving for Ux, Initial residual = 0.00169061, Final residual = 5.9993e-06, No Iterations 2
smoothSolver:  Solving for Uy, Initial residual = 0.00213423, Final residual = 9.37439e-06, No Iterations 2
DICPCG:  Solving for p, Initial residual = 0.00268143, Final residual = 0.000113625, No Iterations 19
time step continuity errors : sum local = 7.67813e-08, global = 2.20029e-09, cumulative = 2.4037e-07
DICPCG:  Solving for p, Initial residual = 0.00103856, Final residual = 9.22592e-07, No Iterations 72
time step continuity errors : sum local = 6.24187e-10, global = 6.99344e-12, cumulative = 2.40377e-07
ExecutionTime = 1.32 s  ClockTime = 1 s

Time = 0.6105

Courant Number mean: 0.0382668 max: 1.74184
smoothSolver:  Solving for Ux, Initial residual = 0.00166881, Final residual = 5.87844e-06, No Iterations 2
smoothSolver:  Solving for Uy, Initial residual = 0.00211427, Final residual = 9.23612e-06, No Iterations 2
DICPCG:  Solving for p, Initial residual = 0.00263838, Final residual = 0.000112419, No Iterations 19
time step continuity errors : sum local = 7.61466e-08, global = 2.22695e-09, cumulative = 2.42604e-07
DICPCG:  Solving for p, Initial residual = 0.00102262, Final residual = 9.09985e-07, No Iterations 72
time step continuity errors : sum local = 6.17106e-10, global = 6.72129e-12, cumulative = 2.42611e-07
ExecutionTime = 1.33 s  ClockTime = 1 s

Time = 0.61875

Courant Number mean: 0.0383435 max: 1.74271
smoothSolver:  Solving for Ux, Initial residual = 0.00164777, Final residual = 5.76191e-06, No Iterations 2
smoothSolver:  Solving for Uy, Initial residual = 0.00209483, Final residual = 9.10101e-06, No Iterations 2
DICPCG:  Solving for p, Initial residual = 0.00259632, Final residual = 0.000111133, No Iterations 19
time step continuity errors : sum local = 7.5451e-08, global = 2.18496e-09, cumulative = 2.44796e-07
DICPCG:  Solving for p, Initial residual = 0.00100705, Final residual = 8.96456e-07, No Iterations 72
time step continuity errors : sum local = 6.09337e-10, global = 6.31125e-12, cumulative = 2.44802e-07
ExecutionTime = 1.35 s  ClockTime = 1 s

Time = 0.627

Courant Number mean: 0.0384196 max: 1.74358
smoothSolver:  Solving for Ux, Initial residual = 0.0016273, Final residual = 5.64922e-06, No Iterations 2
smoothSolver:  Solving for Uy, Initial residual = 0.00207584, Final residual = 8.96868e-06, No Iterations 2
DICPCG:  Solving for p, Initial residual = 0.00255541, Final residual = 0.000109946, No Iterations 19
time step continuity errors : sum local = 7.48169e-08, global = 2.21001e-09, cumulative = 2.47012e-07
DICPCG:  Solving for p, Initial residual = 0.000991883, Final residual = 8.8312e-07, No Iterations 72
time step continuity errors : sum local = 6.01645e-10, global = 6.01128e-12, cumulative = 2.47018e-07
ExecutionTime = 1.36 s  ClockTime = 1 s

Time = 0.63525

Courant Number mean: 0.0384955 max: 1.74443
smoothSolver:  Solving for Ux, Initial residual = 0.00160734, Final residual = 5.54202e-06, No Iterations 2
smoothSolver:  Solving for Uy, Initial residual = 0.00205729, Final residual = 8.83954e-06, No Iterations 2
DICPCG:  Solving for p, Initial residual = 0.00251605, Final residual = 0.00010868, No Iterations 19
time step continuity errors : sum local = 7.41228e-08, global = 2.16953e-09, cumulative = 2.49188e-07
DICPCG:  Solving for p, Initial residual = 0.000977141, Final residual = 8.68998e-07, No Iterations 72
time step continuity errors : sum local = 5.93351e-10, global = 5.58382e-12, cumulative = 2.49193e-07
ExecutionTime = 1.37 s  ClockTime = 1 s

Time = 0.6435

Courant Number mean: 0.0385709 max: 1.74527
smoothSolver:  Solving for Ux, Initial residual = 0.00158788, Final residual = 5.44004e-06, No Iterations 2
smoothSolver:  Solving for Uy, Initial residual = 0.00203931, Final residual = 8.71381e-06, No Iterations 2
DICPCG:  Solving for p, Initial residual = 0.00247794, Final residual = 0.000107505, No Iterations 19
time step continuity errors : sum local = 7.34846e-08, global = 2.19283e-09, cumulative = 2.51386e-07
DICPCG:  Solving for p, Initial residual = 0.000962887, Final residual = 8.54474e-07, No Iterations 72
time step continuity errors : sum local = 5.84721e-10, global = 5.25827e-12, cumulative = 2.51392e-07
ExecutionTime = 1.39 s  ClockTime = 1 s

Time = 0.65175

Courant Number mean: 0.0386457 max: 1.7461
smoothSolver:  Solving for Ux, Initial residual = 0.00156919, Final residual = 5.34223e-06, No Iterations 2
smoothSolver:  Solving for Uy, Initial residual = 0.00202189, Final residual = 8.59149e-06, No Iterations 2
DICPCG:  Solving for p, Initial residual = 0.00244062, Final residual = 0.000106258, No Iterations 19
time step continuity errors : sum local = 7.27908e-08, global = 2.154e-09, cumulative = 2.53546e-07
DICPCG:  Solving for p, Initial residual = 0.00094898, Final residual = 8.38749e-07, No Iterations 72
time step continuity errors : sum local = 5.75203e-10, global = 4.81432e-12, cumulative = 2.5355e-07
ExecutionTime = 1.4 s  ClockTime = 1 s

Time = 0.66

Courant Number mean: 0.03872 max: 1.74691
smoothSolver:  Solving for Ux, Initial residual = 0.00155096, Final residual = 5.2495e-06, No Iterations 2
smoothSolver:  Solving for Uy, Initial residual = 0.00200489, Final residual = 8.47257e-06, No Iterations 2
DICPCG:  Solving for p, Initial residual = 0.00240401, Final residual = 0.000105084, No Iterations 19
time step continuity errors : sum local = 7.21412e-08, global = 2.17554e-09, cumulative = 2.55726e-07
DICPCG:  Solving for p, Initial residual = 0.000935528, Final residual = 8.24533e-07, No Iterations 72
time step continuity errors : sum local = 5.66656e-10, global = 4.46408e-12, cumulative = 2.5573e-07
ExecutionTime = 1.41 s  ClockTime = 1 s

Time = 0.66825

Courant Number mean: 0.0387943 max: 1.74771
smoothSolver:  Solving for Ux, Initial residual = 0.00153319, Final residual = 5.16005e-06, No Iterations 2
smoothSolver:  Solving for Uy, Initial residual = 0.0019883, Final residual = 8.35674e-06, No Iterations 2
DICPCG:  Solving for p, Initial residual = 0.00236816, Final residual = 0.000103867, No Iterations 19
time step continuity errors : sum local = 7.14563e-08, global = 2.1385e-09, cumulative = 2.57869e-07
DICPCG:  Solving for p, Initial residual = 0.000922332, Final residual = 8.07326e-07, No Iterations 72
time step continuity errors : sum local = 5.55987e-10, global = 4.00478e-12, cumulative = 2.57873e-07
ExecutionTime = 1.44 s  ClockTime = 1 s

Time = 0.6765

Courant Number mean: 0.0388683 max: 1.74851
smoothSolver:  Solving for Ux, Initial residual = 0.00151598, Final residual = 5.07348e-06, No Iterations 2
smoothSolver:  Solving for Uy, Initial residual = 0.00197208, Final residual = 8.24385e-06, No Iterations 2
DICPCG:  Solving for p, Initial residual = 0.00233328, Final residual = 0.000102726, No Iterations 19
time step continuity errors : sum local = 7.08168e-08, global = 2.15823e-09, cumulative = 2.60031e-07
DICPCG:  Solving for p, Initial residual = 0.000909435, Final residual = 7.98297e-07, No Iterations 72
time step continuity errors : sum local = 5.50893e-10, global = 3.65468e-12, cumulative = 2.60035e-07
ExecutionTime = 1.45 s  ClockTime = 1 s

Time = 0.68475

Courant Number mean: 0.0389419 max: 1.74929
smoothSolver:  Solving for Ux, Initial residual = 0.0014992, Final residual = 4.99038e-06, No Iterations 2
smoothSolver:  Solving for Uy, Initial residual = 0.00195628, Final residual = 8.13363e-06, No Iterations 2
DICPCG:  Solving for p, Initial residual = 0.00229943, Final residual = 0.000101524, No Iterations 19
time step continuity errors : sum local = 7.01304e-08, global = 2.1232e-09, cumulative = 2.62158e-07
DICPCG:  Solving for p, Initial residual = 0.000896788, Final residual = 7.88525e-07, No Iterations 72
time step continuity errors : sum local = 5.45243e-10, global = 3.2109e-12, cumulative = 2.62161e-07
ExecutionTime = 1.46 s  ClockTime = 1 s

Time = 0.693

Courant Number mean: 0.0390156 max: 1.75006
smoothSolver:  Solving for Ux, Initial residual = 0.00148314, Final residual = 4.90981e-06, No Iterations 2
smoothSolver:  Solving for Uy, Initial residual = 0.00194089, Final residual = 8.02618e-06, No Iterations 2
DICPCG:  Solving for p, Initial residual = 0.00226641, Final residual = 0.000100359, No Iterations 19
time step continuity errors : sum local = 6.94634e-08, global = 2.14076e-09, cumulative = 2.64302e-07
DICPCG:  Solving for p, Initial residual = 0.000884401, Final residual = 7.77419e-07, No Iterations 72
time step continuity errors : sum local = 5.38624e-10, global = 2.90697e-12, cumulative = 2.64305e-07
ExecutionTime = 1.48 s  ClockTime = 1 s

Time = 0.70125

Courant Number mean: 0.0390893 max: 1.75082
smoothSolver:  Solving for Ux, Initial residual = 0.00146771, Final residual = 4.83141e-06, No Iterations 2
smoothSolver:  Solving for Uy, Initial residual = 0.00192591, Final residual = 7.92148e-06, No Iterations 2
DICPCG:  Solving for p, Initial residual = 0.00223425, Final residual = 9.91311e-05, No Iterations 19
time step continuity errors : sum local = 6.87481e-08, global = 2.10854e-09, cumulative = 2.66413e-07
DICPCG:  Solving for p, Initial residual = 0.000872242, Final residual = 7.65884e-07, No Iterations 72
time step continuity errors : sum local = 5.31662e-10, global = 2.41958e-12, cumulative = 2.66416e-07
ExecutionTime = 1.49 s  ClockTime = 1 s

Time = 0.7095

Courant Number mean: 0.0391624 max: 1.75157
smoothSolver:  Solving for Ux, Initial residual = 0.00145265, Final residual = 4.7562e-06, No Iterations 2
smoothSolver:  Solving for Uy, Initial residual = 0.00191121, Final residual = 7.8203e-06, No Iterations 2
DICPCG:  Solving for p, Initial residual = 0.00220281, Final residual = 9.79515e-05, No Iterations 19
time step continuity errors : sum local = 6.80607e-08, global = 2.12349e-09, cumulative = 2.68539e-07
DICPCG:  Solving for p, Initial residual = 0.0008604, Final residual = 7.55235e-07, No Iterations 72
time step continuity errors : sum local = 5.2527e-10, global = 2.04639e-12, cumulative = 2.68541e-07
ExecutionTime = 1.5 s  ClockTime = 1 s

Time = 0.71775

Courant Number mean: 0.0392346 max: 1.75232
smoothSolver:  Solving for Ux, Initial residual = 0.00143792, Final residual = 4.68355e-06, No Iterations 2
smoothSolver:  Solving for Uy, Initial residual = 0.00189677, Final residual = 7.72296e-06, No Iterations 2
DICPCG:  Solving for p, Initial residual = 0.002172, Final residual = 9.6755e-05, No Iterations 19
time step continuity errors : sum local = 6.73573e-08, global = 2.09434e-09, cumulative = 2.70636e-07
DICPCG:  Solving for p, Initial residual = 0.000848795, Final residual = 9.99285e-07, No Iterations 71
time step continuity errors : sum local = 6.96324e-10, global = 3.70001e-12, cumulative = 2.70639e-07
ExecutionTime = 1.52 s  ClockTime = 1 s

Time = 0.726

Courant Number mean: 0.0393067 max: 1.75305
smoothSolver:  Solving for Ux, Initial residual = 0.00142357, Final residual = 4.61281e-06, No Iterations 2
smoothSolver:  Solving for Uy, Initial residual = 0.00188269, Final residual = 7.62755e-06, No Iterations 2
DICPCG:  Solving for p, Initial residual = 0.00214172, Final residual = 9.57601e-05, No Iterations 19
time step continuity errors : sum local = 6.67908e-08, global = 2.10719e-09, cumulative = 2.72747e-07
DICPCG:  Solving for p, Initial residual = 0.000837807, Final residual = 9.35642e-07, No Iterations 71
time step continuity errors : sum local = 6.53207e-10, global = 2.75839e-12, cumulative = 2.72749e-07
ExecutionTime = 1.54 s  ClockTime = 1 s

Time = 0.73425

Courant Number mean: 0.0393784 max: 1.75377
smoothSolver:  Solving for Ux, Initial residual = 0.00140956, Final residual = 4.54416e-06, No Iterations 2
smoothSolver:  Solving for Uy, Initial residual = 0.00186891, Final residual = 7.53444e-06, No Iterations 2
DICPCG:  Solving for p, Initial residual = 0.00211253, Final residual = 9.5125e-05, No Iterations 19
time step continuity errors : sum local = 6.64722e-08, global = 2.07807e-09, cumulative = 2.74827e-07
DICPCG:  Solving for p, Initial residual = 0.0008273, Final residual = 9.31146e-07, No Iterations 71
time step continuity errors : sum local = 6.51281e-10, global = 2.30944e-12, cumulative = 2.7483e-07
ExecutionTime = 1.55 s  ClockTime = 1 s

Time = 0.7425

Courant Number mean: 0.0394494 max: 1.75449
smoothSolver:  Solving for Ux, Initial residual = 0.00139587, Final residual = 4.47753e-06, No Iterations 2
smoothSolver:  Solving for Uy, Initial residual = 0.00185547, Final residual = 7.44336e-06, No Iterations 2
DICPCG:  Solving for p, Initial residual = 0.00208413, Final residual = 9.39406e-05, No Iterations 19
time step continuity errors : sum local = 6.5766e-08, global = 2.09238e-09, cumulative = 2.76922e-07
DICPCG:  Solving for p, Initial residual = 0.000816535, Final residual = 9.24052e-07, No Iterations 71
time step continuity errors : sum local = 6.47504e-10, global = 1.76119e-12, cumulative = 2.76924e-07
ExecutionTime = 1.57 s  ClockTime = 1 s

Time = 0.75075

Courant Number mean: 0.03952 max: 1.75522
smoothSolver:  Solving for Ux, Initial residual = 0.00138254, Final residual = 4.41311e-06, No Iterations 2
smoothSolver:  Solving for Uy, Initial residual = 0.00184252, Final residual = 7.35408e-06, No Iterations 2
DICPCG:  Solving for p, Initial residual = 0.00205637, Final residual = 9.25987e-05, No Iterations 19
time step continuity errors : sum local = 6.49445e-08, global = 2.06517e-09, cumulative = 2.78989e-07
DICPCG:  Solving for p, Initial residual = 0.000805888, Final residual = 8.80216e-07, No Iterations 71
time step continuity errors : sum local = 6.17899e-10, global = 1.08488e-12, cumulative = 2.7899e-07
ExecutionTime = 1.61 s  ClockTime = 1 s

Time = 0.759

Courant Number mean: 0.0395905 max: 1.75594
smoothSolver:  Solving for Ux, Initial residual = 0.00136954, Final residual = 4.35067e-06, No Iterations 2
smoothSolver:  Solving for Uy, Initial residual = 0.00182987, Final residual = 7.26662e-06, No Iterations 2
DICPCG:  Solving for p, Initial residual = 0.00202942, Final residual = 9.17385e-05, No Iterations 19
time step continuity errors : sum local = 6.44565e-08, global = 2.0763e-09, cumulative = 2.81066e-07
DICPCG:  Solving for p, Initial residual = 0.000795861, Final residual = 8.71413e-07, No Iterations 71
time step continuity errors : sum local = 6.12807e-10, global = 4.94688e-13, cumulative = 2.81067e-07
ExecutionTime = 1.62 s  ClockTime = 1 s

Time = 0.76725

Courant Number mean: 0.0396605 max: 1.75665
smoothSolver:  Solving for Ux, Initial residual = 0.00135686, Final residual = 4.28984e-06, No Iterations 2
smoothSolver:  Solving for Uy, Initial residual = 0.00181748, Final residual = 7.18097e-06, No Iterations 2
DICPCG:  Solving for p, Initial residual = 0.0020031, Final residual = 9.06004e-05, No Iterations 19
time step continuity errors : sum local = 6.3769e-08, global = 2.05166e-09, cumulative = 2.83119e-07
DICPCG:  Solving for p, Initial residual = 0.000785851, Final residual = 8.55763e-07, No Iterations 71
time step continuity errors : sum local = 6.02853e-10, global = -1.49406e-13, cumulative = 2.83118e-07
ExecutionTime = 1.65 s  ClockTime = 1 s

Time = 0.7755

Courant Number mean: 0.03973 max: 1.75735
smoothSolver:  Solving for Ux, Initial residual = 0.00134452, Final residual = 4.23052e-06, No Iterations 2
[...]

        p

    Reconstructing volVectorFields

        U

    Reconstructing surfaceScalarFields

        phi

Reconstructing point fields

No point fields

No lagrangian fields

Time = 5.99775

Reconstructing FV fields

    Reconstructing volScalarFields

        p

    Reconstructing volVectorFields

        U

    Reconstructing surfaceScalarFields

        phi

Reconstructing point fields

No point fields

No lagrangian fields

Time = 6.2535

Reconstructing FV fields

    Reconstructing volScalarFields

        p

    Reconstructing volVectorFields

        U

    Reconstructing surfaceScalarFields

        phi

Reconstructing point fields

No point fields

No lagrangian fields

Time = 6.501

Reconstructing FV fields

    Reconstructing volScalarFields

        p

    Reconstructing volVectorFields

        U

    Reconstructing surfaceScalarFields

        phi

Reconstructing point fields

No point fields

No lagrangian fields

Time = 6.7485

Reconstructing FV fields

    Reconstructing volScalarFields

        p

    Reconstructing volVectorFields

        U

    Reconstructing surfaceScalarFields

        phi

Reconstructing point fields

No point fields

No lagrangian fields

Time = 6.996

Reconstructing FV fields

    Reconstructing volScalarFields

        p

    Reconstructing volVectorFields

        U

    Reconstructing surfaceScalarFields

        phi

Reconstructing point fields

No point fields

No lagrangian fields

Time = 7.25175

Reconstructing FV fields

    Reconstructing volScalarFields

        p

    Reconstructing volVectorFields

        U

    Reconstructing surfaceScalarFields

        phi

Reconstructing point fields

No point fields

No lagrangian fields

Time = 7.49925

Reconstructing FV fields

    Reconstructing volScalarFields

        p

    Reconstructing volVectorFields

        U

    Reconstructing surfaceScalarFields

        phi

Reconstructing point fields

No point fields

No lagrangian fields

Time = 7.74675

Reconstructing FV fields

    Reconstructing volScalarFields

        p

    Reconstructing volVectorFields

        U

    Reconstructing surfaceScalarFields

        phi

Reconstructing point fields

No point fields

No lagrangian fields

Time = 8.0025

Reconstructing FV fields

    Reconstructing volScalarFields

        p

    Reconstructing volVectorFields

        U

    Reconstructing surfaceScalarFields

        phi

Reconstructing point fields

No point fields

No lagrangian fields

Time = 8.25

Reconstructing FV fields

    Reconstructing volScalarFields

        p

    Reconstructing volVectorFields

        U

    Reconstructing surfaceScalarFields

        phi

Reconstructing point fields

No point fields

No lagrangian fields

Time = 8.4975

Reconstructing FV fields

    Reconstructing volScalarFields

        p

    Reconstructing volVectorFields

        U

    Reconstructing surfaceScalarFields

        phi

Reconstructing point fields

No point fields

No lagrangian fields

Time = 8.75325

Reconstructing FV fields

    Reconstructing volScalarFields

        p

    Reconstructing volVectorFields

        U

    Reconstructing surfaceScalarFields

        phi

Reconstructing point fields

No point fields

No lagrangian fields

Time = 9.00075

Reconstructing FV fields

    Reconstructing volScalarFields

        p

    Reconstructing volVectorFields

        U

    Reconstructing surfaceScalarFields

        phi

Reconstructing point fields

No point fields

No lagrangian fields

Time = 9.24825

Reconstructing FV fields

    Reconstructing volScalarFields

        p

    Reconstructing volVectorFields

        U

    Reconstructing surfaceScalarFields

        phi

Reconstructing point fields

No point fields

No lagrangian fields

Time = 9.504

Reconstructing FV fields

    Reconstructing volScalarFields

        p

    Reconstructing volVectorFields

        U

    Reconstructing surfaceScalarFields

        phi

Reconstructing point fields

No point fields

No lagrangian fields

Time = 9.7515

Reconstructing FV fields

    Reconstructing volScalarFields

        p

    Reconstructing volVectorFields

        U

    Reconstructing surfaceScalarFields

        phi

Reconstructing point fields

No point fields

No lagrangian fields

Time = 9.999

Reconstructing FV fields

    Reconstructing volScalarFields

        p

    Reconstructing volVectorFields

        U

    Reconstructing surfaceScalarFields

        phi

Reconstructing point fields

No point fields

No lagrangian fields

Time = 10.2465

Reconstructing FV fields

    Reconstructing volScalarFields

        p

    Reconstructing volVectorFields

        U

    Reconstructing surfaceScalarFields

        phi

Reconstructing point fields

No point fields

No lagrangian fields

Time = 10.50225

Reconstructing FV fields

    Reconstructing volScalarFields

        p

    Reconstructing volVectorFields

        U

    Reconstructing surfaceScalarFields

        phi

Reconstructing point fields

No point fields

No lagrangian fields

Time = 10.74975

Reconstructing FV fields

    Reconstructing volScalarFields

        p

    Reconstructing volVectorFields

        U

    Reconstructing surfaceScalarFields

        phi

Reconstructing point fields

No point fields

No lagrangian fields

Time = 10.99725

Reconstructing FV fields

    Reconstructing volScalarFields

        p

    Reconstructing volVectorFields

        U

    Reconstructing surfaceScalarFields

        phi

Reconstructing point fields

No point fields

No lagrangian fields

Time = 11.253

Reconstructing FV fields

    Reconstructing volScalarFields

        p

    Reconstructing volVectorFields

        U

    Reconstructing surfaceScalarFields

        phi

Reconstructing point fields

No point fields

No lagrangian fields

Time = 11.5005

Reconstructing FV fields

    Reconstructing volScalarFields

        p

    Reconstructing volVectorFields

        U

    Reconstructing surfaceScalarFields

        phi

Reconstructing point fields

No point fields

No lagrangian fields

Time = 11.748

Reconstructing FV fields

    Reconstructing volScalarFields

        p

    Reconstructing volVectorFields

        U

    Reconstructing surfaceScalarFields

        phi

Reconstructing point fields

No point fields

No lagrangian fields

Time = 12.00375

Reconstructing FV fields

    Reconstructing volScalarFields

        p

    Reconstructing volVectorFields

        U

    Reconstructing surfaceScalarFields

        phi

Reconstructing point fields

No point fields

No lagrangian fields

Time = 12.25125

Reconstructing FV fields

    Reconstructing volScalarFields

        p

    Reconstructing volVectorFields

        U

    Reconstructing surfaceScalarFields

        phi

Reconstructing point fields

No point fields

No lagrangian fields

Time = 12.49875

Reconstructing FV fields

    Reconstructing volScalarFields

        p

    Reconstructing volVectorFields

        U

    Reconstructing surfaceScalarFields

        phi

Reconstructing point fields

No point fields

No lagrangian fields

Time = 12.74625

Reconstructing FV fields

    Reconstructing volScalarFields

        p

    Reconstructing volVectorFields

        U

    Reconstructing surfaceScalarFields

        phi

Reconstructing point fields

No point fields

No lagrangian fields

Time = 13.002

Reconstructing FV fields

    Reconstructing volScalarFields

        p

    Reconstructing volVectorFields

        U

    Reconstructing surfaceScalarFields

        phi

Reconstructing point fields

No point fields

No lagrangian fields

Time = 13.2495

Reconstructing FV fields

    Reconstructing volScalarFields

        p

    Reconstructing volVectorFields

        U

    Reconstructing surfaceScalarFields

        phi

Reconstructing point fields

No point fields

No lagrangian fields

Time = 13.497

Reconstructing FV fields

    Reconstructing volScalarFields

        p

    Reconstructing volVectorFields

        U

    Reconstructing surfaceScalarFields

        phi

Reconstructing point fields

No point fields

No lagrangian fields

Time = 13.75275

Reconstructing FV fields

    Reconstructing volScalarFields

        p

    Reconstructing volVectorFields

        U

    Reconstructing surfaceScalarFields

        phi

Reconstructing point fields

No point fields

No lagrangian fields

Time = 14.00025

Reconstructing FV fields

    Reconstructing volScalarFields

        p

    Reconstructing volVectorFields

        U

    Reconstructing surfaceScalarFields

        phi

Reconstructing point fields

No point fields

No lagrangian fields

Time = 14.24775

Reconstructing FV fields

    Reconstructing volScalarFields

        p

    Reconstructing volVectorFields

        U

    Reconstructing surfaceScalarFields

        phi

Reconstructing point fields

No point fields

No lagrangian fields

Time = 14.5035

Reconstructing FV fields

    Reconstructing volScalarFields

        p

    Reconstructing volVectorFields

        U

    Reconstructing surfaceScalarFields

        phi

Reconstructing point fields

No point fields

No lagrangian fields

Time = 14.751

Reconstructing FV fields

    Reconstructing volScalarFields

        p

    Reconstructing volVectorFields

        U

    Reconstructing surfaceScalarFields

        phi

Reconstructing point fields

No point fields

No lagrangian fields

Time = 14.9985

Reconstructing FV fields

    Reconstructing volScalarFields

        p

    Reconstructing volVectorFields

        U

    Reconstructing surfaceScalarFields

        phi

Reconstructing point fields

No point fields

No lagrangian fields

Time = 15.246

Reconstructing FV fields

    Reconstructing volScalarFields

        p

    Reconstructing volVectorFields

        U

    Reconstructing surfaceScalarFields

        phi

Reconstructing point fields

No point fields

No lagrangian fields

Time = 15.50175

Reconstructing FV fields

    Reconstructing volScalarFields

        p

    Reconstructing volVectorFields

        U

    Reconstructing surfaceScalarFields

        phi

Reconstructing point fields

No point fields

No lagrangian fields

Time = 15.74925

Reconstructing FV fields

    Reconstructing volScalarFields

        p

    Reconstructing volVectorFields

        U

    Reconstructing surfaceScalarFields

        phi

Reconstructing point fields

No point fields

No lagrangian fields

Time = 15.99675

Reconstructing FV fields

    Reconstructing volScalarFields

        p

    Reconstructing volVectorFields

        U

    Reconstructing surfaceScalarFields

        phi

Reconstructing point fields

No point fields

No lagrangian fields

Time = 16.2525

Reconstructing FV fields

    Reconstructing volScalarFields

        p

    Reconstructing volVectorFields

        U

    Reconstructing surfaceScalarFields

        phi

Reconstructing point fields

No point fields

No lagrangian fields

Time = 16.5

Reconstructing FV fields

    Reconstructing volScalarFields

        p

    Reconstructing volVectorFields

        U

    Reconstructing surfaceScalarFields

        phi

Reconstructing point fields

No point fields

No lagrangian fields

Time = 16.7475

Reconstructing FV fields

    Reconstructing volScalarFields

        p

    Reconstructing volVectorFields

        U

    Reconstructing surfaceScalarFields

        phi

Reconstructing point fields

No point fields

No lagrangian fields

Time = 17.00325

Reconstructing FV fields

    Reconstructing volScalarFields

        p

    Reconstructing volVectorFields

        U

    Reconstructing surfaceScalarFields

        phi

Reconstructing point fields

No point fields

No lagrangian fields

Time = 17.25075

Reconstructing FV fields

    Reconstructing volScalarFields

        p

    Reconstructing volVectorFields

        U

    Reconstructing surfaceScalarFields

        phi

Reconstructing point fields

No point fields

No lagrangian fields

Time = 17.49825

Reconstructing FV fields

    Reconstructing volScalarFields

        p

    Reconstructing volVectorFields

        U

    Reconstructing surfaceScalarFields

        phi

Reconstructing point fields

No point fields

No lagrangian fields

Time = 17.754

Reconstructing FV fields

    Reconstructing volScalarFields

        p

    Reconstructing volVectorFields

        U

    Reconstructing surfaceScalarFields

        phi

Reconstructing point fields

No point fields

No lagrangian fields

Time = 18.0015

Reconstructing FV fields

    Reconstructing volScalarFields

        p

    Reconstructing volVectorFields

        U

    Reconstructing surfaceScalarFields

        phi

Reconstructing point fields

No point fields

No lagrangian fields

Time = 18.249

Reconstructing FV fields

    Reconstructing volScalarFields

        p

    Reconstructing volVectorFields

        U

    Reconstructing surfaceScalarFields

        phi

Reconstructing point fields

No point fields

No lagrangian fields

Time = 18.4965

Reconstructing FV fields

    Reconstructing volScalarFields

        p

    Reconstructing volVectorFields

        U

    Reconstructing surfaceScalarFields

        phi

Reconstructing point fields

No point fields

No lagrangian fields

Time = 18.75225

Reconstructing FV fields

    Reconstructing volScalarFields

        p

    Reconstructing volVectorFields

        U

    Reconstructing surfaceScalarFields

        phi

Reconstructing point fields

No point fields

No lagrangian fields

Time = 18.99975

Reconstructing FV fields

    Reconstructing volScalarFields

        p

    Reconstructing volVectorFields

        U

    Reconstructing surfaceScalarFields

        phi

Reconstructing point fields

No point fields

No lagrangian fields

Time = 19.24725

Reconstructing FV fields

    Reconstructing volScalarFields

        p

    Reconstructing volVectorFields

        U

    Reconstructing surfaceScalarFields

        phi

Reconstructing point fields

No point fields

No lagrangian fields

Time = 19.503

Reconstructing FV fields

    Reconstructing volScalarFields

        p

    Reconstructing volVectorFields

        U

    Reconstructing surfaceScalarFields

        phi

Reconstructing point fields

No point fields

No lagrangian fields

Time = 19.7505

Reconstructing FV fields

    Reconstructing volScalarFields

        p

    Reconstructing volVectorFields

        U

    Reconstructing surfaceScalarFields

        phi

Reconstructing point fields

No point fields

No lagrangian fields

Time = 19.998

Reconstructing FV fields

    Reconstructing volScalarFields

        p

    Reconstructing volVectorFields

        U

    Reconstructing surfaceScalarFields

        phi

Reconstructing point fields

No point fields

No lagrangian fields

Time = 20.25375

Reconstructing FV fields

    Reconstructing volScalarFields

        p

    Reconstructing volVectorFields

        U

    Reconstructing surfaceScalarFields

        phi

Reconstructing point fields

No point fields

No lagrangian fields

Time = 20.50125

Reconstructing FV fields

    Reconstructing volScalarFields

        p

    Reconstructing volVectorFields

        U

    Reconstructing surfaceScalarFields

        phi

Reconstructing point fields

No point fields

No lagrangian fields

Time = 20.74875

Reconstructing FV fields

    Reconstructing volScalarFields

        p

    Reconstructing volVectorFields

        U

    Reconstructing surfaceScalarFields

        phi

Reconstructing point fields

No point fields

No lagrangian fields

Time = 20.99625

Reconstructing FV fields

    Reconstructing volScalarFields

        p

    Reconstructing volVectorFields

        U

    Reconstructing surfaceScalarFields

        phi

Reconstructing point fields

No point fields

No lagrangian fields

Time = 21.252

Reconstructing FV fields

    Reconstructing volScalarFields

        p

    Reconstructing volVectorFields

        U

    Reconstructing surfaceScalarFields

        phi

Reconstructing point fields

No point fields

No lagrangian fields

Time = 21.4995

Reconstructing FV fields

    Reconstructing volScalarFields

        p

    Reconstructing volVectorFields

        U

    Reconstructing surfaceScalarFields

        phi

Reconstructing point fields

No point fields

No lagrangian fields

Time = 21.747

Reconstructing FV fields

    Reconstructing volScalarFields

        p

    Reconstructing volVectorFields

        U

    Reconstructing surfaceScalarFields

        phi

Reconstructing point fields

No point fields

No lagrangian fields

Time = 22.00275

Reconstructing FV fields

    Reconstructing volScalarFields

        p

    Reconstructing volVectorFields

        U

    Reconstructing surfaceScalarFields

        phi

Reconstructing point fields

No point fields

No lagrangian fields

Time = 22.25025

Reconstructing FV fields

    Reconstructing volScalarFields

        p

    Reconstructing volVectorFields

        U

    Reconstructing surfaceScalarFields

        phi

Reconstructing point fields

No point fields

No lagrangian fields

Time = 22.49775

Reconstructing FV fields

    Reconstructing volScalarFields

        p

    Reconstructing volVectorFields

        U

    Reconstructing surfaceScalarFields

        phi

Reconstructing point fields

No point fields

No lagrangian fields

Time = 22.7535

Reconstructing FV fields

    Reconstructing volScalarFields

        p

    Reconstructing volVectorFields

        U

    Reconstructing surfaceScalarFields

        phi

Reconstructing point fields

No point fields

No lagrangian fields

Time = 23.001

Reconstructing FV fields

    Reconstructing volScalarFields

        p

    Reconstructing volVectorFields

        U

    Reconstructing surfaceScalarFields

        phi

Reconstructing point fields

No point fields

No lagrangian fields

Time = 23.2485

Reconstructing FV fields

    Reconstructing volScalarFields

        p

    Reconstructing volVectorFields

        U

    Reconstructing surfaceScalarFields

        phi

Reconstructing point fields

No point fields

No lagrangian fields

Time = 23.496

Reconstructing FV fields

    Reconstructing volScalarFields

        p

    Reconstructing volVectorFields

        U

    Reconstructing surfaceScalarFields

        phi

Reconstructing point fields

No point fields

No lagrangian fields

Time = 23.75175

Reconstructing FV fields

    Reconstructing volScalarFields

        p

    Reconstructing volVectorFields

        U

    Reconstructing surfaceScalarFields

        phi

Reconstructing point fields

No point fields

No lagrangian fields

Time = 23.99925

Reconstructing FV fields

    Reconstructing volScalarFields

        p

    Reconstructing volVectorFields

        U

    Reconstructing surfaceScalarFields

        phi

Reconstructing point fields

No point fields

No lagrangian fields

Time = 24.24675

Reconstructing FV fields

    Reconstructing volScalarFields

        p

    Reconstructing volVectorFields

        U

    Reconstructing surfaceScalarFields

        phi

Reconstructing point fields

No point fields

No lagrangian fields

Time = 24.5025

Reconstructing FV fields

    Reconstructing volScalarFields

        p

    Reconstructing volVectorFields

        U

    Reconstructing surfaceScalarFields

        phi

Reconstructing point fields

No point fields

No lagrangian fields

Time = 24.75

Reconstructing FV fields

    Reconstructing volScalarFields

        p

    Reconstructing volVectorFields

        U

    Reconstructing surfaceScalarFields

        phi

Reconstructing point fields

No point fields

No lagrangian fields

Time = 24.9975

Reconstructing FV fields

    Reconstructing volScalarFields

        p

    Reconstructing volVectorFields

        U

    Reconstructing surfaceScalarFields

        phi

Reconstructing point fields

No point fields

No lagrangian fields


End

