/work/05113/danieler/stampede2/CFD-Final-Project/circular-cylinder-1-1
Sun May 10 18:12:47 CDT 2020
/*---------------------------------------------------------------------------*\
  =========                 |
  \\      /  F ield         | OpenFOAM: The Open Source CFD Toolbox
   \\    /   O peration     | Website:  https://openfoam.org
    \\  /    A nd           | Version:  6.0
     \\/     M anipulation  |
\*---------------------------------------------------------------------------*/
Build  : 6.0
Exec   : blockMesh
Date   : May 10 2020
Time   : 18:12:49
Host   : "c411-053.stampede2.tacc.utexas.edu"
PID    : 20977
I/O    : uncollated
Case   : /work/05113/danieler/stampede2/CFD-Final-Project/circular-cylinder-1-1
nProcs : 1
sigFpe : Enabling floating point exception trapping (FOAM_SIGFPE).
fileModificationChecking : Monitoring run-time modified files using timeStampMaster (fileModificationSkew 10)
allowSystemOperations : Allowing user-supplied system call operations

// * * * * * * * * * * * * * * * * * * * * * * * * * * * * * * * * * * * * * //
Create time

Deleting polyMesh directory
    "/work/05113/danieler/stampede2/CFD-Final-Project/circular-cylinder-1-1/constant/polyMesh"
Creating block mesh from
    "/work/05113/danieler/stampede2/CFD-Final-Project/circular-cylinder-1-1/system/blockMeshDict"
Creating block edges
No non-planar block faces defined
Creating topology blocks
Creating topology patches

Creating block mesh topology

Check topology

	Basic statistics
		Number of internal faces : 28
		Number of boundary faces : 64
		Number of defined boundary faces : 64
		Number of undefined boundary faces : 0
	Checking patch -> block consistency

Creating block offsets
Creating merge list .

Creating polyMesh from blockMesh
Creating points with scale 1
    Block 0 cell size :
        i : 0.025 .. 0.025
        j : 0.0196334 .. 0.0196334
        k : 1 .. 1

    Block 1 cell size :
        i : 0.0196334 .. 0.0196334
        j : 0.025 .. 0.025
        k : 1 .. 1

    Block 2 cell size :
        i : 0.0196334 .. 0.0196334
        j : 0.0249962 .. 0.0249962
        k : 1 .. 1

    Block 3 cell size :
        i : 0.025 .. 0.025
        j : 0.0392667 .. 0.0392667
        k : 1 .. 1

    Block 4 cell size :
        i : 0.0249962 .. 0.0249962
        j : 0.0392667 .. 0.0392667
        k : 1 .. 1

    Block 5 cell size :
        i : 0.0392667 .. 0.0392667
        j : 0.0249962 .. 0.0249962
        k : 1 .. 1

    Block 6 cell size :
        i : 0.0392667 .. 0.0392667
        j : 0.025 .. 0.025
        k : 1 .. 1

    Block 7 cell size :
        i : 0.0249962 .. 0.0249962
        j : 0.0196334 .. 0.0196334
        k : 1 .. 1

    Block 8 cell size :
        i : 0.132326 .. 0.529304
        j : 0.0392667 .. 0.0392667
        k : 1 .. 1

    Block 9 cell size :
        i : 0.135696 .. 0.542785
        j : 0.0640059 .. 0.256024
        k : 1 .. 1

    Block 10 cell size :
        i : 0.0392667 .. 0.0392667
        j : 0.0572934 .. 0.229174
        k : 1 .. 1

    Block 11 cell size :
        i : 0.0392667 .. 0.0392667
        j : 0.0640059 .. 0.256024
        k : 1 .. 1

    Block 12 cell size :
        i : 0.139645 .. 0.139645
        j : 0.0640059 .. 0.256024
        k : 1 .. 1

    Block 13 cell size :
        i : 0.125 .. 0.125
        j : 0.035355 .. 0.035355
        k : 1 .. 1

    Block 14 cell size :
        i : 0.139645 .. 0.139645
        j : 0.035355 .. 0.035355
        k : 1 .. 1

    Block 15 cell size :
        i : 0.139645 .. 0.139645
        j : 0.256024 .. 0.0640059
        k : 1 .. 1

    Block 16 cell size :
        i : 0.035355 .. 0.035355
        j : 0.256024 .. 0.0640059
        k : 1 .. 1

    Block 17 cell size :
        i : 0.035355 .. 0.035355
        j : 0.229174 .. 0.0572934
        k : 1 .. 1

    Block 18 cell size :
        i : 0.135696 .. 0.542785
        j : 0.256024 .. 0.0640059
        k : 1 .. 1

    Block 19 cell size :
        i : 0.135696 .. 0.542785
        j : 0.0392667 .. 0.0392667
        k : 1 .. 1

Creating cells
Creating patches

Writing polyMesh
----------------
Mesh Information
----------------
  boundingBox: (-3.5 -3.5 0) (12.5 3.5 1)
  nPoints: 19720
  nCells: 9600
  nFaces: 38660
  nInternalFaces: 18940
----------------
Patches
----------------
  patch 0 (start: 18940 size: 80) name: inlet
  patch 1 (start: 19020 size: 80) name: outlet
  patch 2 (start: 19100 size: 100) name: top
  patch 3 (start: 19200 size: 100) name: bottom
  patch 4 (start: 19300 size: 160) name: cylinder
  patch 5 (start: 19460 size: 19200) name: frontandback

End

/*---------------------------------------------------------------------------*\
  =========                 |
  \\      /  F ield         | OpenFOAM: The Open Source CFD Toolbox
   \\    /   O peration     | Website:  https://openfoam.org
    \\  /    A nd           | Version:  6.0
     \\/     M anipulation  |
\*---------------------------------------------------------------------------*/
Build  : 6.0
Exec   : checkMesh
Date   : May 10 2020
Time   : 18:12:51
Host   : "c411-053.stampede2.tacc.utexas.edu"
PID    : 20984
I/O    : uncollated
Case   : /work/05113/danieler/stampede2/CFD-Final-Project/circular-cylinder-1-1
nProcs : 1
sigFpe : Enabling floating point exception trapping (FOAM_SIGFPE).
fileModificationChecking : Monitoring run-time modified files using timeStampMaster (fileModificationSkew 10)
allowSystemOperations : Allowing user-supplied system call operations

// * * * * * * * * * * * * * * * * * * * * * * * * * * * * * * * * * * * * * //
Create time

Create polyMesh for time = 0

Time = 0

Mesh stats
    points:           19720
    internal points:  0
    faces:            38660
    internal faces:   18940
    cells:            9600
    faces per cell:   6
    boundary patches: 6
    point zones:      0
    face zones:       0
    cell zones:       0

Overall number of cells of each type:
    hexahedra:     9600
    prisms:        0
    wedges:        0
    pyramids:      0
    tet wedges:    0
    tetrahedra:    0
    polyhedra:     0

Checking topology...
    Boundary definition OK.
    Cell to face addressing OK.
    Point usage OK.
    Upper triangular ordering OK.
    Face vertices OK.
    Number of regions: 1 (OK).

Checking patch topology for multiply connected surfaces...
    Patch               Faces    Points   Surface topology                  
    inlet               80       162      ok (non-closed singly connected)  
    outlet              80       162      ok (non-closed singly connected)  
    top                 100      202      ok (non-closed singly connected)  
    bottom              100      202      ok (non-closed singly connected)  
    cylinder            160      320      ok (non-closed singly connected)  
    frontandback        19200    19720    ok (non-closed singly connected)  

Checking geometry...
    Overall domain bounding box (-3.5 -3.5 0) (12.5 3.5 1)
    Mesh has 2 geometric (non-empty/wedge) directions (1 1 0)
    Mesh has 2 solution (non-empty) directions (1 1 0)
    All edges aligned with or perpendicular to non-empty directions.
    Boundary openness (8.1763e-18 1.52999e-16 -2.59276e-15) OK.
    Max cell openness = 2.14597e-16 OK.
    Max aspect ratio = 15.3524 OK.
    Minimum face area = 0.000502938. Maximum face area = 0.542785.  Face area magnitudes OK.
    Min volume = 0.000502938. Max volume = 0.138966.  Total volume = 111.215.  Cell volumes OK.
    Mesh non-orthogonality Max: 43.475 average: 11.32
    Non-orthogonality check OK.
    Face pyramids OK.
    Max skewness = 0.488996 OK.
    Coupled point location match (average 0) OK.

Mesh OK.

End

/*---------------------------------------------------------------------------*\
  =========                 |
  \\      /  F ield         | OpenFOAM: The Open Source CFD Toolbox
   \\    /   O peration     | Website:  https://openfoam.org
    \\  /    A nd           | Version:  6.0
     \\/     M anipulation  |
\*---------------------------------------------------------------------------*/
Build  : 6.0
Exec   : decomposePar
Date   : May 10 2020
Time   : 18:12:53
Host   : "c411-053.stampede2.tacc.utexas.edu"
PID    : 21041
I/O    : uncollated
Case   : /work/05113/danieler/stampede2/CFD-Final-Project/circular-cylinder-1-1
nProcs : 1
sigFpe : Enabling floating point exception trapping (FOAM_SIGFPE).
fileModificationChecking : Monitoring run-time modified files using timeStampMaster (fileModificationSkew 10)
allowSystemOperations : Allowing user-supplied system call operations

// * * * * * * * * * * * * * * * * * * * * * * * * * * * * * * * * * * * * * //
Create time



Decomposing mesh region0

Create mesh

Calculating distribution of cells
Selecting decompositionMethod hierarchical

Finished decomposition in 0.01 s

Calculating original mesh data

Distributing cells to processors

Distributing faces to processors

Distributing points to processors

Constructing processor meshes

Processor 0
    Number of cells = 4800
    Number of faces shared with processor 1 = 100
    Number of processor patches = 1
    Number of processor faces = 100
    Number of boundary faces = 9892

Processor 1
    Number of cells = 4800
    Number of faces shared with processor 0 = 100
    Number of processor patches = 1
    Number of processor faces = 100
    Number of boundary faces = 9828

Number of processor faces = 100
Max number of cells = 4800 (0% above average 4800)
Max number of processor patches = 1 (0% above average 1)
Max number of faces between processors = 100 (0% above average 100)

Time = 0
--> FOAM Warning : 
    From function bool Foam::IOobject::readHeader(Foam::Istream &)
    in file db/IOobject/IOobjectReadHeader.C at line 88
    Reading "/work/05113/danieler/stampede2/CFD-Final-Project/circular-cylinder-1-1/0/log" at line 8
    First token could not be read or is not the keyword 'FoamFile'

Check header is of the form:

/*--------------------------------*- C++ -*----------------------------------*\
  =========                 |
  \\      /  F ield         | OpenFOAM: The Open Source CFD Toolbox
   \\    /   O peration     | Website:  https://openfoam.org
    \\  /    A nd           | Version:  6.0
     \\/     M anipulation  |
\*---------------------------------------------------------------------------*/
FoamFile
{
    version     2.0;
    format      ascii;
    class       IOobject;
    location    "0";
    object      log;
}
// * * * * * * * * * * * * * * * * * * * * * * * * * * * * * * * * * * * * * //


Processor 0: field transfer
Processor 1: field transfer

End

TACC:  Starting up job 5677427 
TACC:  Starting parallel tasks... 
/*---------------------------------------------------------------------------*\
  =========                 |
  \\      /  F ield         | OpenFOAM: The Open Source CFD Toolbox
   \\    /   O peration     | Website:  https://openfoam.org
    \\  /    A nd           | Version:  6.0
     \\/     M anipulation  |
\*---------------------------------------------------------------------------*/
Build  : 6.0
Exec   : /home1/apps/intel18/impi18_0/OpenFOAM/OpenFOAM-6.0/platforms/linux64IccDPInt32Opt/bin/icoFoam -parallel
Date   : May 10 2020
Time   : 18:12:57
Host   : "c411-053.stampede2.tacc.utexas.edu"
PID    : 21149
I/O    : uncollated
Case   : /work/05113/danieler/stampede2/CFD-Final-Project/circular-cylinder-1-1
nProcs : 2
Slaves : 1("c411-053.stampede2.tacc.utexas.edu.21150")
Pstream initialized with:
    floatTransfer      : 0
    nProcsSimpleSum    : 0
    commsType          : nonBlocking
    polling iterations : 0
sigFpe : Enabling floating point exception trapping (FOAM_SIGFPE).
fileModificationChecking : Monitoring run-time modified files using timeStampMaster (fileModificationSkew 10)
allowSystemOperations : Allowing user-supplied system call operations

// * * * * * * * * * * * * * * * * * * * * * * * * * * * * * * * * * * * * * //
Create time

Create mesh for time = 0

Reading transportProperties

Reading field p

Reading field U

Reading/calculating face flux field phi


Starting time loop

Time = 0.01

Courant Number mean: 0.067789 max: 0.619918
smoothSolver:  Solving for Ux, Initial residual = 1, Final residual = 6.7534e-06, No Iterations 13
smoothSolver:  Solving for Uy, Initial residual = 1, Final residual = 5.26354e-06, No Iterations 13
DICPCG:  Solving for p, Initial residual = 1, Final residual = 0.0416429, No Iterations 99
time step continuity errors : sum local = 7.77039e-06, global = -5.03464e-08, cumulative = -5.03464e-08
DICPCG:  Solving for p, Initial residual = 0.251172, Final residual = 9.47546e-07, No Iterations 169
time step continuity errors : sum local = 1.06929e-09, global = -3.19478e-12, cumulative = -5.03496e-08
ExecutionTime = 0.31 s  ClockTime = 1 s

Time = 0.02

Courant Number mean: 0.0701109 max: 0.75788
smoothSolver:  Solving for Ux, Initial residual = 0.249881, Final residual = 4.42442e-06, No Iterations 10
smoothSolver:  Solving for Uy, Initial residual = 0.322024, Final residual = 7.78835e-06, No Iterations 10
DICPCG:  Solving for p, Initial residual = 0.30607, Final residual = 0.0151839, No Iterations 99
time step continuity errors : sum local = 1.39929e-05, global = 1.02896e-07, cumulative = 5.25462e-08
DICPCG:  Solving for p, Initial residual = 0.405733, Final residual = 8.98508e-07, No Iterations 173
time step continuity errors : sum local = 6.11749e-10, global = -2.3124e-12, cumulative = 5.25439e-08
ExecutionTime = 0.41 s  ClockTime = 1 s

Time = 0.03

Courant Number mean: 0.0701748 max: 0.791103
smoothSolver:  Solving for Ux, Initial residual = 0.0521346, Final residual = 6.37254e-06, No Iterations 8
smoothSolver:  Solving for Uy, Initial residual = 0.0640896, Final residual = 4.27556e-06, No Iterations 8
DICPCG:  Solving for p, Initial residual = 0.687919, Final residual = 0.030916, No Iterations 84
time step continuity errors : sum local = 5.4757e-06, global = 3.08191e-08, cumulative = 8.3363e-08
DICPCG:  Solving for p, Initial residual = 0.442359, Final residual = 9.05453e-07, No Iterations 159
time step continuity errors : sum local = 1.46774e-10, global = 1.49775e-12, cumulative = 8.33645e-08
ExecutionTime = 0.51 s  ClockTime = 1 s

Time = 0.04

Courant Number mean: 0.0701598 max: 0.752733
smoothSolver:  Solving for Ux, Initial residual = 0.0226348, Final residual = 7.22222e-06, No Iterations 7
smoothSolver:  Solving for Uy, Initial residual = 0.0256078, Final residual = 4.6551e-06, No Iterations 7
DICPCG:  Solving for p, Initial residual = 0.428707, Final residual = 0.0210094, No Iterations 49
time step continuity errors : sum local = 1.4022e-06, global = 2.26546e-07, cumulative = 3.0991e-07
DICPCG:  Solving for p, Initial residual = 0.31686, Final residual = 9.57497e-07, No Iterations 166
time step continuity errors : sum local = 5.36539e-11, global = 1.67281e-13, cumulative = 3.09911e-07
ExecutionTime = 0.6 s  ClockTime = 1 s

Time = 0.05

Courant Number mean: 0.0701585 max: 0.733388
smoothSolver:  Solving for Ux, Initial residual = 0.0113123, Final residual = 5.93433e-06, No Iterations 7
smoothSolver:  Solving for Uy, Initial residual = 0.0134161, Final residual = 4.56921e-06, No Iterations 7
DICPCG:  Solving for p, Initial residual = 0.224198, Final residual = 0.0108556, No Iterations 34
time step continuity errors : sum local = 3.47968e-07, global = -3.492e-08, cumulative = 2.74991e-07
DICPCG:  Solving for p, Initial residual = 0.143372, Final residual = 9.10395e-07, No Iterations 162
time step continuity errors : sum local = 2.83779e-11, global = -1.20332e-13, cumulative = 2.74991e-07
ExecutionTime = 0.68 s  ClockTime = 1 s

Time = 0.06

Courant Number mean: 0.0701529 max: 0.713627
smoothSolver:  Solving for Ux, Initial residual = 0.00965848, Final residual = 4.77133e-06, No Iterations 7
smoothSolver:  Solving for Uy, Initial residual = 0.0120723, Final residual = 9.7241e-06, No Iterations 6
DICPCG:  Solving for p, Initial residual = 0.126186, Final residual = 0.0056166, No Iterations 88
time step continuity errors : sum local = 1.71046e-07, global = 1.58497e-09, cumulative = 2.76576e-07
DICPCG:  Solving for p, Initial residual = 0.0840752, Final residual = 9.74144e-07, No Iterations 158
time step continuity errors : sum local = 2.48455e-11, global = 1.00573e-13, cumulative = 2.76576e-07
ExecutionTime = 0.77 s  ClockTime = 1 s

Time = 0.07

Courant Number mean: 0.0701436 max: 0.701484
smoothSolver:  Solving for Ux, Initial residual = 0.00767141, Final residual = 9.57613e-06, No Iterations 6
smoothSolver:  Solving for Uy, Initial residual = 0.0104231, Final residual = 8.69885e-06, No Iterations 6
DICPCG:  Solving for p, Initial residual = 0.0960735, Final residual = 0.00458861, No Iterations 50
time step continuity errors : sum local = 1.20036e-07, global = 2.43563e-08, cumulative = 3.00932e-07
DICPCG:  Solving for p, Initial residual = 0.0594959, Final residual = 8.89881e-07, No Iterations 154
time step continuity errors : sum local = 2.25755e-11, global = 6.78701e-14, cumulative = 3.00932e-07
ExecutionTime = 0.85 s  ClockTime = 1 s

Time = 0.08

Courant Number mean: 0.0701328 max: 0.689171
smoothSolver:  Solving for Ux, Initial residual = 0.00648109, Final residual = 8.16867e-06, No Iterations 6
smoothSolver:  Solving for Uy, Initial residual = 0.00948638, Final residual = 7.85285e-06, No Iterations 6
DICPCG:  Solving for p, Initial residual = 0.0727659, Final residual = 0.0035249, No Iterations 49
time step continuity errors : sum local = 8.36616e-08, global = 1.1142e-08, cumulative = 3.12074e-07
DICPCG:  Solving for p, Initial residual = 0.0450817, Final residual = 9.7097e-07, No Iterations 153
time step continuity errors : sum local = 2.26608e-11, global = 4.04547e-14, cumulative = 3.12074e-07
ExecutionTime = 0.93 s  ClockTime = 1 s

Time = 0.09

Courant Number mean: 0.070122 max: 0.677178
smoothSolver:  Solving for Ux, Initial residual = 0.00563581, Final residual = 7.08922e-06, No Iterations 6
smoothSolver:  Solving for Uy, Initial residual = 0.00870323, Final residual = 7.15266e-06, No Iterations 6
DICPCG:  Solving for p, Initial residual = 0.0538012, Final residual = 0.00237868, No Iterations 50
time step continuity errors : sum local = 5.33332e-08, global = 9.05496e-09, cumulative = 3.21129e-07
DICPCG:  Solving for p, Initial residual = 0.0330833, Final residual = 9.72105e-07, No Iterations 152
time step continuity errors : sum local = 2.15499e-11, global = -6.57346e-14, cumulative = 3.21129e-07
ExecutionTime = 1.01 s  ClockTime = 1 s

Time = 0.1

Courant Number mean: 0.0701118 max: 0.667732
smoothSolver:  Solving for Ux, Initial residual = 0.00500156, Final residual = 6.24195e-06, No Iterations 6
smoothSolver:  Solving for Uy, Initial residual = 0.00807508, Final residual = 6.55835e-06, No Iterations 6
DICPCG:  Solving for p, Initial residual = 0.0428484, Final residual = 0.00199102, No Iterations 50
time step continuity errors : sum local = 4.27544e-08, global = 6.72111e-09, cumulative = 3.2785e-07
DICPCG:  Solving for p, Initial residual = 0.0276684, Final residual = 8.1036e-07, No Iterations 152
time step continuity errors : sum local = 1.7268e-11, global = -1.22511e-13, cumulative = 3.2785e-07
ExecutionTime = 1.09 s  ClockTime = 1 s

Time = 0.11

Courant Number mean: 0.0701024 max: 0.660183
smoothSolver:  Solving for Ux, Initial residual = 0.00450889, Final residual = 5.56319e-06, No Iterations 6
smoothSolver:  Solving for Uy, Initial residual = 0.00754792, Final residual = 6.05969e-06, No Iterations 6
DICPCG:  Solving for p, Initial residual = 0.0370328, Final residual = 0.00173484, No Iterations 50
time step continuity errors : sum local = 3.6055e-08, global = 5.51754e-09, cumulative = 3.33368e-07
DICPCG:  Solving for p, Initial residual = 0.0257226, Final residual = 9.30133e-07, No Iterations 151
time step continuity errors : sum local = 1.9223e-11, global = -1.93581e-13, cumulative = 3.33367e-07
ExecutionTime = 1.18 s  ClockTime = 1 s

Time = 0.12

Courant Number mean: 0.0700938 max: 0.652722
smoothSolver:  Solving for Ux, Initial residual = 0.00411008, Final residual = 5.00206e-06, No Iterations 6
smoothSolver:  Solving for Uy, Initial residual = 0.00709989, Final residual = 5.63507e-06, No Iterations 6
DICPCG:  Solving for p, Initial residual = 0.0333381, Final residual = 0.00154426, No Iterations 50
time step continuity errors : sum local = 3.12484e-08, global = 4.68445e-09, cumulative = 3.38052e-07
DICPCG:  Solving for p, Initial residual = 0.0240514, Final residual = 9.95066e-07, No Iterations 150
time step continuity errors : sum local = 2.0053e-11, global = -1.95598e-13, cumulative = 3.38052e-07
ExecutionTime = 1.26 s  ClockTime = 2 s

Time = 0.13

Courant Number mean: 0.0700863 max: 0.645641
smoothSolver:  Solving for Ux, Initial residual = 0.00378039, Final residual = 4.52987e-06, No Iterations 6
smoothSolver:  Solving for Uy, Initial residual = 0.0067116, Final residual = 5.2621e-06, No Iterations 6
DICPCG:  Solving for p, Initial residual = 0.0304947, Final residual = 0.00139054, No Iterations 50
time step continuity errors : sum local = 2.7516e-08, global = 4.10179e-09, cumulative = 3.42153e-07
DICPCG:  Solving for p, Initial residual = 0.0223461, Final residual = 8.99488e-07, No Iterations 150
time step continuity errors : sum local = 1.77429e-11, global = -1.72968e-13, cumulative = 3.42153e-07
ExecutionTime = 1.34 s  ClockTime = 2 s

Time = 0.14

Courant Number mean: 0.0700796 max: 0.638873
smoothSolver:  Solving for Ux, Initial residual = 0.00350264, Final residual = 4.12991e-06, No Iterations 6
smoothSolver:  Solving for Uy, Initial residual = 0.006374, Final residual = 4.93161e-06, No Iterations 6
DICPCG:  Solving for p, Initial residual = 0.0281559, Final residual = 0.0012563, No Iterations 50
time step continuity errors : sum local = 2.43828e-08, global = 3.66081e-09, cumulative = 3.45814e-07
DICPCG:  Solving for p, Initial residual = 0.0207491, Final residual = 8.45076e-07, No Iterations 150
time step continuity errors : sum local = 1.63618e-11, global = -1.547e-13, cumulative = 3.45814e-07
ExecutionTime = 1.41 s  ClockTime = 2 s

Time = 0.15

Courant Number mean: 0.0700738 max: 0.632385
smoothSolver:  Solving for Ux, Initial residual = 0.00326418, Final residual = 9.27491e-06, No Iterations 5
smoothSolver:  Solving for Uy, Initial residual = 0.00607623, Final residual = 4.63935e-06, No Iterations 6
DICPCG:  Solving for p, Initial residual = 0.0259007, Final residual = 0.00119495, No Iterations 50
time step continuity errors : sum local = 2.28029e-08, global = 3.70088e-09, cumulative = 3.49515e-07
DICPCG:  Solving for p, Initial residual = 0.0194101, Final residual = 9.8692e-07, No Iterations 149
time step continuity errors : sum local = 1.87953e-11, global = -1.6811e-13, cumulative = 3.49515e-07
ExecutionTime = 1.49 s  ClockTime = 2 s

Time = 0.16

Courant Number mean: 0.0700688 max: 0.62775
smoothSolver:  Solving for Ux, Initial residual = 0.00305594, Final residual = 8.55317e-06, No Iterations 5
smoothSolver:  Solving for Uy, Initial residual = 0.00580632, Final residual = 4.38007e-06, No Iterations 6
DICPCG:  Solving for p, Initial residual = 0.0243809, Final residual = 0.00106475, No Iterations 50
time step continuity errors : sum local = 1.99999e-08, global = 3.01433e-09, cumulative = 3.52529e-07
DICPCG:  Solving for p, Initial residual = 0.0181654, Final residual = 9.82067e-07, No Iterations 149
time step continuity errors : sum local = 1.84196e-11, global = -1.52739e-13, cumulative = 3.52529e-07
ExecutionTime = 1.58 s  ClockTime = 2 s

Time = 0.17

Courant Number mean: 0.0700645 max: 0.623236
smoothSolver:  Solving for Ux, Initial residual = 0.00287713, Final residual = 7.91406e-06, No Iterations 5
smoothSolver:  Solving for Uy, Initial residual = 0.00557155, Final residual = 4.15146e-06, No Iterations 6
DICPCG:  Solving for p, Initial residual = 0.0229401, Final residual = 0.00100264, No Iterations 50
time step continuity errors : sum local = 1.85888e-08, global = 2.81654e-09, cumulative = 3.55345e-07
DICPCG:  Solving for p, Initial residual = 0.0170719, Final residual = 9.80403e-07, No Iterations 149
time step continuity errors : sum local = 1.81559e-11, global = -1.43989e-13, cumulative = 3.55345e-07
ExecutionTime = 1.66 s  ClockTime = 2 s

Time = 0.18

Courant Number mean: 0.0700609 max: 0.61884
smoothSolver:  Solving for Ux, Initial residual = 0.00271886, Final residual = 7.35222e-06, No Iterations 5
smoothSolver:  Solving for Uy, Initial residual = 0.00536095, Final residual = 9.77592e-06, No Iterations 5
DICPCG:  Solving for p, Initial residual = 0.0220615, Final residual = 0.00108683, No Iterations 49
time step continuity errors : sum local = 1.99124e-08, global = 2.43632e-09, cumulative = 3.57781e-07
DICPCG:  Solving for p, Initial residual = 0.0164818, Final residual = 9.34947e-07, No Iterations 149
time step continuity errors : sum local = 1.71178e-11, global = -1.77018e-13, cumulative = 3.57781e-07
ExecutionTime = 1.74 s  ClockTime = 2 s

Time = 0.19

Courant Number mean: 0.070058 max: 0.614675
smoothSolver:  Solving for Ux, Initial residual = 0.00257834, Final residual = 6.85468e-06, No Iterations 5
smoothSolver:  Solving for Uy, Initial residual = 0.0051715, Final residual = 9.31556e-06, No Iterations 5
DICPCG:  Solving for p, Initial residual = 0.0209485, Final residual = 0.000998603, No Iterations 49
time step continuity errors : sum local = 1.81009e-08, global = 2.18442e-09, cumulative = 3.59966e-07
DICPCG:  Solving for p, Initial residual = 0.0155644, Final residual = 9.37869e-07, No Iterations 149
time step continuity errors : sum local = 1.69923e-11, global = -1.65314e-13, cumulative = 3.59966e-07
ExecutionTime = 1.81 s  ClockTime = 2 s

Time = 0.2

Courant Number mean: 0.0700557 max: 0.610755
smoothSolver:  Solving for Ux, Initial residual = 0.00245335, Final residual = 6.4118e-06, No Iterations 5
smoothSolver:  Solving for Uy, Initial residual = 0.00500072, Final residual = 8.88985e-06, No Iterations 5
DICPCG:  Solving for p, Initial residual = 0.019954, Final residual = 0.000937413, No Iterations 49
time step continuity errors : sum local = 1.68317e-08, global = 2.00019e-09, cumulative = 3.61966e-07
DICPCG:  Solving for p, Initial residual = 0.0147402, Final residual = 9.28016e-07, No Iterations 149
time step continuity errors : sum local = 1.66588e-11, global = -1.59805e-13, cumulative = 3.61966e-07
ExecutionTime = 1.89 s  ClockTime = 2 s

Time = 0.21

Courant Number mean: 0.0700541 max: 0.606977
smoothSolver:  Solving for Ux, Initial residual = 0.00234127, Final residual = 6.01367e-06, No Iterations 5
smoothSolver:  Solving for Uy, Initial residual = 0.00484421, Final residual = 8.50252e-06, No Iterations 5
DICPCG:  Solving for p, Initial residual = 0.0190655, Final residual = 0.000881847, No Iterations 49
time step continuity errors : sum local = 1.57004e-08, global = 1.83111e-09, cumulative = 3.63797e-07
DICPCG:  Solving for p, Initial residual = 0.0140175, Final residual = 9.29174e-07, No Iterations 149
time step continuity errors : sum local = 1.65418e-11, global = -1.49989e-13, cumulative = 3.63797e-07
ExecutionTime = 1.97 s  ClockTime = 2 s

Time = 0.22

Courant Number mean: 0.070053 max: 0.603343
smoothSolver:  Solving for Ux, Initial residual = 0.00224036, Final residual = 5.65405e-06, No Iterations 5
smoothSolver:  Solving for Uy, Initial residual = 0.00470142, Final residual = 8.14709e-06, No Iterations 5
DICPCG:  Solving for p, Initial residual = 0.0182524, Final residual = 0.00090456, No Iterations 48
time step continuity errors : sum local = 1.59833e-08, global = 1.62829e-09, cumulative = 3.65425e-07
DICPCG:  Solving for p, Initial residual = 0.0133677, Final residual = 9.10627e-07, No Iterations 149
time step continuity errors : sum local = 1.60923e-11, global = -1.38627e-13, cumulative = 3.65425e-07
ExecutionTime = 2.05 s  ClockTime = 2 s

Time = 0.23

Courant Number mean: 0.0700524 max: 0.599851
smoothSolver:  Solving for Ux, Initial residual = 0.00214865, Final residual = 5.32911e-06, No Iterations 5
smoothSolver:  Solving for Uy, Initial residual = 0.00456938, Final residual = 7.82002e-06, No Iterations 5
DICPCG:  Solving for p, Initial residual = 0.0175057, Final residual = 0.000857921, No Iterations 48
time step continuity errors : sum local = 1.50576e-08, global = 1.51234e-09, cumulative = 3.66937e-07
DICPCG:  Solving for p, Initial residual = 0.0127623, Final residual = 8.83824e-07, No Iterations 149
time step continuity errors : sum local = 1.55159e-11, global = -1.13222e-13, cumulative = 3.66937e-07
ExecutionTime = 2.13 s  ClockTime = 2 s

Time = 0.24

Courant Number mean: 0.0700524 max: 0.596749
smoothSolver:  Solving for Ux, Initial residual = 0.00206512, Final residual = 5.03565e-06, No Iterations 5
smoothSolver:  Solving for Uy, Initial residual = 0.00444643, Final residual = 7.51757e-06, No Iterations 5
DICPCG:  Solving for p, Initial residual = 0.0168068, Final residual = 0.000839842, No Iterations 47
time step continuity errors : sum local = 1.4652e-08, global = 1.37076e-09, cumulative = 3.68308e-07
DICPCG:  Solving for p, Initial residual = 0.0121865, Final residual = 9.78989e-07, No Iterations 148
time step continuity errors : sum local = 1.70861e-11, global = -1.01254e-13, cumulative = 3.68308e-07
ExecutionTime = 2.21 s  ClockTime = 3 s

Time = 0.25

Courant Number mean: 0.0700528 max: 0.594151
smoothSolver:  Solving for Ux, Initial residual = 0.00198895, Final residual = 4.76756e-06, No Iterations 5
smoothSolver:  Solving for Uy, Initial residual = 0.00433243, Final residual = 7.23661e-06, No Iterations 5
DICPCG:  Solving for p, Initial residual = 0.016156, Final residual = 0.000803127, No Iterations 47
time step continuity errors : sum local = 1.39381e-08, global = 1.28933e-09, cumulative = 3.69597e-07
DICPCG:  Solving for p, Initial residual = 0.0116651, Final residual = 9.08248e-07, No Iterations 148
time step continuity errors : sum local = 1.57698e-11, global = -1.0911e-13, cumulative = 3.69597e-07
ExecutionTime = 2.41 s  ClockTime = 3 s

Time = 0.26

Courant Number mean: 0.0700537 max: 0.591628
smoothSolver:  Solving for Ux, Initial residual = 0.00191884, Final residual = 4.52195e-06, No Iterations 5
smoothSolver:  Solving for Uy, Initial residual = 0.00422604, Final residual = 6.97463e-06, No Iterations 5
DICPCG:  Solving for p, Initial residual = 0.0155532, Final residual = 0.000762565, No Iterations 47
time step continuity errors : sum local = 1.3172e-08, global = 1.19826e-09, cumulative = 3.70795e-07
DICPCG:  Solving for p, Initial residual = 0.0111772, Final residual = 8.88314e-07, No Iterations 148
time step continuity errors : sum local = 1.53538e-11, global = -1.85631e-13, cumulative = 3.70795e-07
ExecutionTime = 2.49 s  ClockTime = 3 s

Time = 0.27

Courant Number mean: 0.070055 max: 0.589255
smoothSolver:  Solving for Ux, Initial residual = 0.00185407, Final residual = 4.29634e-06, No Iterations 5
smoothSolver:  Solving for Uy, Initial residual = 0.00412655, Final residual = 6.72958e-06, No Iterations 5
DICPCG:  Solving for p, Initial residual = 0.0149952, Final residual = 0.000724063, No Iterations 47
time step continuity errors : sum local = 1.24553e-08, global = 1.11217e-09, cumulative = 3.71907e-07
DICPCG:  Solving for p, Initial residual = 0.0107124, Final residual = 8.97268e-07, No Iterations 148
time step continuity errors : sum local = 1.5446e-11, global = -2.53536e-13, cumulative = 3.71907e-07
ExecutionTime = 2.57 s  ClockTime = 3 s

Time = 0.28

Courant Number mean: 0.0700568 max: 0.587041
smoothSolver:  Solving for Ux, Initial residual = 0.00179415, Final residual = 4.08848e-06, No Iterations 5
smoothSolver:  Solving for Uy, Initial residual = 0.0040347, Final residual = 6.49994e-06, No Iterations 5
DICPCG:  Solving for p, Initial residual = 0.0144754, Final residual = 0.000720391, No Iterations 46
time step continuity errors : sum local = 1.23469e-08, global = 1.03434e-09, cumulative = 3.72941e-07
DICPCG:  Solving for p, Initial residual = 0.0102825, Final residual = 9.19347e-07, No Iterations 148
time step continuity errors : sum local = 1.57694e-11, global = -2.73445e-13, cumulative = 3.72941e-07
ExecutionTime = 2.65 s  ClockTime = 3 s

Time = 0.29

Courant Number mean: 0.070059 max: 0.584899
smoothSolver:  Solving for Ux, Initial residual = 0.00173887, Final residual = 3.89643e-06, No Iterations 5
smoothSolver:  Solving for Uy, Initial residual = 0.00394824, Final residual = 6.28492e-06, No Iterations 5
DICPCG:  Solving for p, Initial residual = 0.0139824, Final residual = 0.000692946, No Iterations 46
time step continuity errors : sum local = 1.18384e-08, global = 9.72355e-10, cumulative = 3.73913e-07
DICPCG:  Solving for p, Initial residual = 0.00990681, Final residual = 9.0933e-07, No Iterations 148
time step continuity errors : sum local = 1.55486e-11, global = -2.8218e-13, cumulative = 3.73913e-07
ExecutionTime = 2.73 s  ClockTime = 3 s

Time = 0.3

Courant Number mean: 0.0700615 max: 0.582828
smoothSolver:  Solving for Ux, Initial residual = 0.00168739, Final residual = 9.55966e-06, No Iterations 4
smoothSolver:  Solving for Uy, Initial residual = 0.00386675, Final residual = 6.08281e-06, No Iterations 5
DICPCG:  Solving for p, Initial residual = 0.0138618, Final residual = 0.000673037, No Iterations 46
time step continuity errors : sum local = 1.14657e-08, global = 1.59952e-09, cumulative = 3.75512e-07
DICPCG:  Solving for p, Initial residual = 0.0102189, Final residual = 8.50773e-07, No Iterations 148
time step continuity errors : sum local = 1.4502e-11, global = -4.73479e-15, cumulative = 3.75512e-07
ExecutionTime = 2.8 s  ClockTime = 3 s

Time = 0.31

Courant Number mean: 0.0700644 max: 0.580834
smoothSolver:  Solving for Ux, Initial residual = 0.00163724, Final residual = 9.16172e-06, No Iterations 4
smoothSolver:  Solving for Uy, Initial residual = 0.00378428, Final residual = 5.89422e-06, No Iterations 5
DICPCG:  Solving for p, Initial residual = 0.0134688, Final residual = 0.000654265, No Iterations 45
time step continuity errors : sum local = 1.11026e-08, global = 1.05645e-09, cumulative = 3.76569e-07
DICPCG:  Solving for p, Initial residual = 0.0098097, Final residual = 9.97755e-07, No Iterations 146
time step continuity errors : sum local = 1.69443e-11, global = 8.86185e-14, cumulative = 3.76569e-07
ExecutionTime = 2.89 s  ClockTime = 3 s

Time = 0.32

Courant Number mean: 0.0700676 max: 0.578906
smoothSolver:  Solving for Ux, Initial residual = 0.00159297, Final residual = 8.77555e-06, No Iterations 4
smoothSolver:  Solving for Uy, Initial residual = 0.00371378, Final residual = 5.7141e-06, No Iterations 5
DICPCG:  Solving for p, Initial residual = 0.0130319, Final residual = 0.000632603, No Iterations 45
time step continuity errors : sum local = 1.07153e-08, global = 1.13727e-09, cumulative = 3.77706e-07
DICPCG:  Solving for p, Initial residual = 0.00948536, Final residual = 9.12202e-07, No Iterations 147
time step continuity errors : sum local = 1.54623e-11, global = -3.06295e-14, cumulative = 3.77706e-07
ExecutionTime = 2.96 s  ClockTime = 3 s

Time = 0.33

Courant Number mean: 0.0700712 max: 0.577046
smoothSolver:  Solving for Ux, Initial residual = 0.00155118, Final residual = 8.41733e-06, No Iterations 4
smoothSolver:  Solving for Uy, Initial residual = 0.00364589, Final residual = 5.54369e-06, No Iterations 5
DICPCG:  Solving for p, Initial residual = 0.0126745, Final residual = 0.000614953, No Iterations 45
time step continuity errors : sum local = 1.03947e-08, global = 1.05324e-09, cumulative = 3.78759e-07
DICPCG:  Solving for p, Initial residual = 0.00917719, Final residual = 9.58061e-07, No Iterations 147
time step continuity errors : sum local = 1.62067e-11, global = -7.90509e-14, cumulative = 3.78759e-07
ExecutionTime = 3.04 s  ClockTime = 3 s

Time = 0.34

Courant Number mean: 0.070075 max: 0.575267
smoothSolver:  Solving for Ux, Initial residual = 0.00151204, Final residual = 8.08312e-06, No Iterations 4
smoothSolver:  Solving for Uy, Initial residual = 0.00358182, Final residual = 5.38172e-06, No Iterations 5
DICPCG:  Solving for p, Initial residual = 0.0123201, Final residual = 0.000593332, No Iterations 45
time step continuity errors : sum local = 1.0012e-08, global = 1.00928e-09, cumulative = 3.79769e-07
DICPCG:  Solving for p, Initial residual = 0.00887387, Final residual = 9.94291e-07, No Iterations 147
time step continuity errors : sum local = 1.6791e-11, global = -9.63437e-14, cumulative = 3.79769e-07
ExecutionTime = 3.12 s  ClockTime = 3 s

Time = 0.35

Courant Number mean: 0.0700791 max: 0.573655
smoothSolver:  Solving for Ux, Initial residual = 0.0014752, Final residual = 7.77042e-06, No Iterations 4
smoothSolver:  Solving for Uy, Initial residual = 0.00352107, Final residual = 5.22748e-06, No Iterations 5
DICPCG:  Solving for p, Initial residual = 0.0119808, Final residual = 0.000577165, No Iterations 45
time step continuity errors : sum local = 9.72436e-09, global = 9.57152e-10, cumulative = 3.80726e-07
DICPCG:  Solving for p, Initial residual = 0.00859137, Final residual = 8.04824e-07, No Iterations 148
time step continuity errors : sum local = 1.3571e-11, global = -1.49148e-13, cumulative = 3.80726e-07
ExecutionTime = 3.2 s  ClockTime = 4 s

Time = 0.36

Courant Number mean: 0.0700835 max: 0.5721
smoothSolver:  Solving for Ux, Initial residual = 0.00144044, Final residual = 7.47768e-06, No Iterations 4
smoothSolver:  Solving for Uy, Initial residual = 0.00346312, Final residual = 5.08029e-06, No Iterations 5
DICPCG:  Solving for p, Initial residual = 0.0116634, Final residual = 0.000554677, No Iterations 45
time step continuity errors : sum local = 9.33304e-09, global = 9.09002e-10, cumulative = 3.81635e-07
DICPCG:  Solving for p, Initial residual = 0.00831598, Final residual = 8.11758e-07, No Iterations 148
time step continuity errors : sum local = 1.36701e-11, global = -1.45257e-13, cumulative = 3.81634e-07
ExecutionTime = 3.27 s  ClockTime = 4 s

Time = 0.37

Courant Number mean: 0.0700881 max: 0.570599
smoothSolver:  Solving for Ux, Initial residual = 0.00140766, Final residual = 7.20378e-06, No Iterations 4
smoothSolver:  Solving for Uy, Initial residual = 0.00340818, Final residual = 4.93956e-06, No Iterations 5
DICPCG:  Solving for p, Initial residual = 0.0113606, Final residual = 0.000542028, No Iterations 45
time step continuity errors : sum local = 9.10959e-09, global = 8.61733e-10, cumulative = 3.82496e-07
DICPCG:  Solving for p, Initial residual = 0.00806273, Final residual = 8.0465e-07, No Iterations 148
time step continuity errors : sum local = 1.35351e-11, global = -1.396e-13, cumulative = 3.82496e-07
ExecutionTime = 3.35 s  ClockTime = 4 s

Time = 0.38

Courant Number mean: 0.070093 max: 0.569149
smoothSolver:  Solving for Ux, Initial residual = 0.00137669, Final residual = 6.94627e-06, No Iterations 4
smoothSolver:  Solving for Uy, Initial residual = 0.00335585, Final residual = 4.80492e-06, No Iterations 5
DICPCG:  Solving for p, Initial residual = 0.0110692, Final residual = 0.000523865, No Iterations 45
time step continuity errors : sum local = 8.79547e-09, global = 8.16286e-10, cumulative = 3.83312e-07
DICPCG:  Solving for p, Initial residual = 0.00781471, Final residual = 8.05258e-07, No Iterations 148
time step continuity errors : sum local = 1.35322e-11, global = -1.32612e-13, cumulative = 3.83312e-07
ExecutionTime = 3.43 s  ClockTime = 4 s

Time = 0.39

Courant Number mean: 0.0700982 max: 0.567749
smoothSolver:  Solving for Ux, Initial residual = 0.00134736, Final residual = 6.70328e-06, No Iterations 4
smoothSolver:  Solving for Uy, Initial residual = 0.00330632, Final residual = 4.67602e-06, No Iterations 5
DICPCG:  Solving for p, Initial residual = 0.0107915, Final residual = 0.000511222, No Iterations 45
time step continuity errors : sum local = 8.57574e-09, global = 7.72426e-10, cumulative = 3.84085e-07
DICPCG:  Solving for p, Initial residual = 0.00758275, Final residual = 8.01123e-07, No Iterations 148
time step continuity errors : sum local = 1.34513e-11, global = -1.23825e-13, cumulative = 3.84084e-07
ExecutionTime = 3.5 s  ClockTime = 4 s

Time = 0.4

Courant Number mean: 0.0701036 max: 0.566397
smoothSolver:  Solving for Ux, Initial residual = 0.0013196, Final residual = 6.47337e-06, No Iterations 4
smoothSolver:  Solving for Uy, Initial residual = 0.00325891, Final residual = 4.5524e-06, No Iterations 5
DICPCG:  Solving for p, Initial residual = 0.0105321, Final residual = 0.00048882, No Iterations 45
time step continuity errors : sum local = 8.19377e-09, global = 7.2991e-10, cumulative = 3.84814e-07
DICPCG:  Solving for p, Initial residual = 0.00734911, Final residual = 7.9528e-07, No Iterations 148
time step continuity errors : sum local = 1.33432e-11, global = -1.17428e-13, cumulative = 3.84814e-07
ExecutionTime = 3.59 s  ClockTime = 4 s

Time = 0.41

Courant Number mean: 0.0701091 max: 0.565258
smoothSolver:  Solving for Ux, Initial residual = 0.00129324, Final residual = 6.25541e-06, No Iterations 4
smoothSolver:  Solving for Uy, Initial residual = 0.00321338, Final residual = 4.43373e-06, No Iterations 5
DICPCG:  Solving for p, Initial residual = 0.0102831, Final residual = 0.000482016, No Iterations 45
time step continuity errors : sum local = 8.07436e-09, global = 6.89255e-10, cumulative = 3.85503e-07
DICPCG:  Solving for p, Initial residual = 0.00714193, Final residual = 9.93085e-07, No Iterations 147
time step continuity errors : sum local = 1.66512e-11, global = -7.01076e-14, cumulative = 3.85503e-07
ExecutionTime = 3.66 s  ClockTime = 4 s

Time = 0.42

Courant Number mean: 0.0701149 max: 0.564187
smoothSolver:  Solving for Ux, Initial residual = 0.00126825, Final residual = 6.04884e-06, No Iterations 4
smoothSolver:  Solving for Uy, Initial residual = 0.00316929, Final residual = 4.31971e-06, No Iterations 5
DICPCG:  Solving for p, Initial residual = 0.0100091, Final residual = 0.000495608, No Iterations 44
time step continuity errors : sum local = 8.33144e-09, global = 6.40256e-10, cumulative = 3.86144e-07
DICPCG:  Solving for p, Initial residual = 0.00691219, Final residual = 9.87609e-07, No Iterations 147
time step continuity errors : sum local = 1.66206e-11, global = -6.4632e-14, cumulative = 3.86144e-07
ExecutionTime = 3.74 s  ClockTime = 4 s

Time = 0.43

Courant Number mean: 0.0701209 max: 0.563147
smoothSolver:  Solving for Ux, Initial residual = 0.00124444, Final residual = 5.85283e-06, No Iterations 4
smoothSolver:  Solving for Uy, Initial residual = 0.0031268, Final residual = 4.21002e-06, No Iterations 5
DICPCG:  Solving for p, Initial residual = 0.00974768, Final residual = 0.000485882, No Iterations 44
time step continuity errors : sum local = 8.20237e-09, global = 6.03184e-10, cumulative = 3.86747e-07
DICPCG:  Solving for p, Initial residual = 0.00670815, Final residual = 9.657e-07, No Iterations 147
time step continuity errors : sum local = 1.63198e-11, global = -6.04895e-14, cumulative = 3.86747e-07
ExecutionTime = 3.81 s  ClockTime = 4 s

Time = 0.44

Courant Number mean: 0.070127 max: 0.562137
smoothSolver:  Solving for Ux, Initial residual = 0.00122172, Final residual = 5.66633e-06, No Iterations 4
smoothSolver:  Solving for Uy, Initial residual = 0.00308585, Final residual = 4.1045e-06, No Iterations 5
DICPCG:  Solving for p, Initial residual = 0.00950048, Final residual = 0.000461685, No Iterations 44
time step continuity errors : sum local = 7.82533e-09, global = 5.71617e-10, cumulative = 3.87318e-07
DICPCG:  Solving for p, Initial residual = 0.00648684, Final residual = 9.50018e-07, No Iterations 147
time step continuity errors : sum local = 1.61185e-11, global = -5.47129e-14, cumulative = 3.87318e-07
ExecutionTime = 3.89 s  ClockTime = 4 s

Time = 0.45

Courant Number mean: 0.0701334 max: 0.561155
smoothSolver:  Solving for Ux, Initial residual = 0.0012, Final residual = 5.48872e-06, No Iterations 4
smoothSolver:  Solving for Uy, Initial residual = 0.00304634, Final residual = 4.00276e-06, No Iterations 5
DICPCG:  Solving for p, Initial residual = 0.00926053, Final residual = 0.000449551, No Iterations 44
time step continuity errors : sum local = 7.64931e-09, global = 5.40051e-10, cumulative = 3.87858e-07
DICPCG:  Solving for p, Initial residual = 0.00628844, Final residual = 9.26253e-07, No Iterations 147
time step continuity errors : sum local = 1.57756e-11, global = -5.05065e-14, cumulative = 3.87858e-07
ExecutionTime = 3.96 s  ClockTime = 4 s

Time = 0.46

Courant Number mean: 0.0701399 max: 0.560202
smoothSolver:  Solving for Ux, Initial residual = 0.00117932, Final residual = 5.31943e-06, No Iterations 4
smoothSolver:  Solving for Uy, Initial residual = 0.00300817, Final residual = 3.90456e-06, No Iterations 5
DICPCG:  Solving for p, Initial residual = 0.00903062, Final residual = 0.000431603, No Iterations 44
time step continuity errors : sum local = 7.37144e-09, global = 5.08402e-10, cumulative = 3.88367e-07
DICPCG:  Solving for p, Initial residual = 0.00608897, Final residual = 9.24038e-07, No Iterations 147
time step continuity errors : sum local = 1.5796e-11, global = -4.30343e-14, cumulative = 3.88367e-07
ExecutionTime = 4.04 s  ClockTime = 4 s

Time = 0.47

Courant Number mean: 0.0701464 max: 0.559276
smoothSolver:  Solving for Ux, Initial residual = 0.00115962, Final residual = 5.15782e-06, No Iterations 4
smoothSolver:  Solving for Uy, Initial residual = 0.00297133, Final residual = 3.80984e-06, No Iterations 5
DICPCG:  Solving for p, Initial residual = 0.00880822, Final residual = 0.000417334, No Iterations 44
time step continuity errors : sum local = 7.15343e-09, global = 4.79104e-10, cumulative = 3.88846e-07
DICPCG:  Solving for p, Initial residual = 0.0059036, Final residual = 8.95439e-07, No Iterations 147
time step continuity errors : sum local = 1.53615e-11, global = -4.05539e-14, cumulative = 3.88846e-07
ExecutionTime = 4.13 s  ClockTime = 4 s

Time = 0.48

Courant Number mean: 0.0701532 max: 0.558376
smoothSolver:  Solving for Ux, Initial residual = 0.00114075, Final residual = 5.00343e-06, No Iterations 4
smoothSolver:  Solving for Uy, Initial residual = 0.00293588, Final residual = 9.84973e-06, No Iterations 4
DICPCG:  Solving for p, Initial residual = 0.00880294, Final residual = 0.000428092, No Iterations 44
time step continuity errors : sum local = 7.36462e-09, global = 3.70742e-10, cumulative = 3.89216e-07
DICPCG:  Solving for p, Initial residual = 0.0059743, Final residual = 9.43683e-07, No Iterations 145
time step continuity errors : sum local = 1.62433e-11, global = -1.60569e-15, cumulative = 3.89216e-07
ExecutionTime = 4.2 s  ClockTime = 5 s

Time = 0.49

Courant Number mean: 0.07016 max: 0.557502
smoothSolver:  Solving for Ux, Initial residual = 0.0011223, Final residual = 4.85637e-06, No Iterations 4
smoothSolver:  Solving for Uy, Initial residual = 0.00290118, Final residual = 9.64041e-06, No Iterations 4
DICPCG:  Solving for p, Initial residual = 0.00858779, Final residual = 0.000409104, No Iterations 44
time step continuity errors : sum local = 7.0628e-09, global = 2.9138e-10, cumulative = 3.89508e-07
DICPCG:  Solving for p, Initial residual = 0.00577488, Final residual = 9.02029e-07, No Iterations 146
time step continuity errors : sum local = 1.55804e-11, global = -1.4328e-13, cumulative = 3.89508e-07
ExecutionTime = 4.27 s  ClockTime = 5 s

Time = 0.5

Courant Number mean: 0.0701671 max: 0.556666
smoothSolver:  Solving for Ux, Initial residual = 0.00110495, Final residual = 4.71505e-06, No Iterations 4
smoothSolver:  Solving for Uy, Initial residual = 0.00286841, Final residual = 9.42915e-06, No Iterations 4
DICPCG:  Solving for p, Initial residual = 0.00837609, Final residual = 0.00039417, No Iterations 44
time step continuity errors : sum local = 6.82713e-09, global = 2.76526e-10, cumulative = 3.89784e-07
DICPCG:  Solving for p, Initial residual = 0.00559286, Final residual = 8.90266e-07, No Iterations 146
time step continuity errors : sum local = 1.54267e-11, global = -1.52383e-13, cumulative = 3.89784e-07
ExecutionTime = 4.48 s  ClockTime = 5 s

Time = 0.51

Courant Number mean: 0.0701742 max: 0.555915
smoothSolver:  Solving for Ux, Initial residual = 0.0010883, Final residual = 4.5799e-06, No Iterations 4
smoothSolver:  Solving for Uy, Initial residual = 0.00283747, Final residual = 9.22439e-06, No Iterations 4
DICPCG:  Solving for p, Initial residual = 0.0081819, Final residual = 0.000381823, No Iterations 44
time step continuity errors : sum local = 6.63445e-09, global = 2.48189e-10, cumulative = 3.90032e-07
DICPCG:  Solving for p, Initial residual = 0.00541995, Final residual = 9.00586e-07, No Iterations 146
time step continuity errors : sum local = 1.56547e-11, global = -1.59576e-13, cumulative = 3.90032e-07
ExecutionTime = 4.56 s  ClockTime = 5 s

Time = 0.52

Courant Number mean: 0.0701814 max: 0.555185
smoothSolver:  Solving for Ux, Initial residual = 0.00107236, Final residual = 4.45044e-06, No Iterations 4
smoothSolver:  Solving for Uy, Initial residual = 0.00280839, Final residual = 9.02529e-06, No Iterations 4
DICPCG:  Solving for p, Initial residual = 0.007996, Final residual = 0.000370599, No Iterations 44
time step continuity errors : sum local = 6.45923e-09, global = 2.25841e-10, cumulative = 3.90258e-07
DICPCG:  Solving for p, Initial residual = 0.00526415, Final residual = 9.02434e-07, No Iterations 146
time step continuity errors : sum local = 1.57344e-11, global = -1.62919e-13, cumulative = 3.90258e-07
ExecutionTime = 4.63 s  ClockTime = 5 s

Time = 0.53

Courant Number mean: 0.0701888 max: 0.554476
smoothSolver:  Solving for Ux, Initial residual = 0.00105705, Final residual = 4.32628e-06, No Iterations 4
smoothSolver:  Solving for Uy, Initial residual = 0.00278012, Final residual = 8.8317e-06, No Iterations 4
DICPCG:  Solving for p, Initial residual = 0.00782227, Final residual = 0.000361034, No Iterations 44
time step continuity errors : sum local = 6.31126e-09, global = 2.0404e-10, cumulative = 3.90462e-07
DICPCG:  Solving for p, Initial residual = 0.00511866, Final residual = 8.936e-07, No Iterations 146
time step continuity errors : sum local = 1.56262e-11, global = -1.62889e-13, cumulative = 3.90462e-07
ExecutionTime = 4.7 s  ClockTime = 5 s

Time = 0.54

Courant Number mean: 0.0701963 max: 0.553788
smoothSolver:  Solving for Ux, Initial residual = 0.00104235, Final residual = 4.20707e-06, No Iterations 4
smoothSolver:  Solving for Uy, Initial residual = 0.00275234, Final residual = 8.64384e-06, No Iterations 4
DICPCG:  Solving for p, Initial residual = 0.00765768, Final residual = 0.000348989, No Iterations 44
time step continuity errors : sum local = 6.11821e-09, global = 1.82622e-10, cumulative = 3.90644e-07
DICPCG:  Solving for p, Initial residual = 0.00497408, Final residual = 8.89834e-07, No Iterations 146
time step continuity errors : sum local = 1.56044e-11, global = -1.627e-13, cumulative = 3.90644e-07
ExecutionTime = 4.77 s  ClockTime = 5 s

Time = 0.55

Courant Number mean: 0.0702038 max: 0.553118
smoothSolver:  Solving for Ux, Initial residual = 0.00102827, Final residual = 4.09255e-06, No Iterations 4
smoothSolver:  Solving for Uy, Initial residual = 0.00272506, Final residual = 8.46096e-06, No Iterations 4
DICPCG:  Solving for p, Initial residual = 0.00749912, Final residual = 0.000341902, No Iterations 44
time step continuity errors : sum local = 6.01058e-09, global = 1.63407e-10, cumulative = 3.90808e-07
DICPCG:  Solving for p, Initial residual = 0.00484183, Final residual = 8.87024e-07, No Iterations 146
time step continuity errors : sum local = 1.55977e-11, global = -1.60453e-13, cumulative = 3.90807e-07
ExecutionTime = 4.86 s  ClockTime = 5 s

Time = 0.56

Courant Number mean: 0.0702114 max: 0.552468
smoothSolver:  Solving for Ux, Initial residual = 0.00101468, Final residual = 3.98255e-06, No Iterations 4
smoothSolver:  Solving for Uy, Initial residual = 0.00269829, Final residual = 8.28302e-06, No Iterations 4
DICPCG:  Solving for p, Initial residual = 0.0073491, Final residual = 0.000329194, No Iterations 44
time step continuity errors : sum local = 5.80265e-09, global = 1.43963e-10, cumulative = 3.90951e-07
DICPCG:  Solving for p, Initial residual = 0.00470902, Final residual = 8.75108e-07, No Iterations 146
time step continuity errors : sum local = 1.54286e-11, global = -1.60491e-13, cumulative = 3.90951e-07
ExecutionTime = 4.93 s  ClockTime = 5 s

Time = 0.57

Courant Number mean: 0.0702192 max: 0.551836
smoothSolver:  Solving for Ux, Initial residual = 0.00100156, Final residual = 3.87677e-06, No Iterations 4
smoothSolver:  Solving for Uy, Initial residual = 0.00267218, Final residual = 8.10991e-06, No Iterations 4
DICPCG:  Solving for p, Initial residual = 0.00720506, Final residual = 0.000322007, No Iterations 44
time step continuity errors : sum local = 5.69055e-09, global = 1.26444e-10, cumulative = 3.91078e-07
DICPCG:  Solving for p, Initial residual = 0.00458743, Final residual = 8.71617e-07, No Iterations 146
time step continuity errors : sum local = 1.5406e-11, global = -1.58682e-13, cumulative = 3.91077e-07
ExecutionTime = 5.01 s  ClockTime = 5 s

Time = 0.58

Courant Number mean: 0.0702269 max: 0.551222
smoothSolver:  Solving for Ux, Initial residual = 0.000988868, Final residual = 3.77499e-06, No Iterations 4
smoothSolver:  Solving for Uy, Initial residual = 0.00264668, Final residual = 7.94155e-06, No Iterations 4
DICPCG:  Solving for p, Initial residual = 0.00706994, Final residual = 0.000311975, No Iterations 44
time step continuity errors : sum local = 5.52693e-09, global = 1.08927e-10, cumulative = 3.91186e-07
DICPCG:  Solving for p, Initial residual = 0.00446617, Final residual = 8.58036e-07, No Iterations 146
time step continuity errors : sum local = 1.52029e-11, global = -1.56204e-13, cumulative = 3.91186e-07
ExecutionTime = 5.08 s  ClockTime = 5 s

Time = 0.59

Courant Number mean: 0.0702348 max: 0.550625
smoothSolver:  Solving for Ux, Initial residual = 0.000976589, Final residual = 3.67701e-06, No Iterations 4
smoothSolver:  Solving for Uy, Initial residual = 0.00262175, Final residual = 7.77775e-06, No Iterations 4
DICPCG:  Solving for p, Initial residual = 0.00693734, Final residual = 0.000304441, No Iterations 44
time step continuity errors : sum local = 5.40631e-09, global = 9.28754e-11, cumulative = 3.91279e-07
DICPCG:  Solving for p, Initial residual = 0.00435242, Final residual = 8.46811e-07, No Iterations 146
time step continuity errors : sum local = 1.50392e-11, global = -1.53087e-13, cumulative = 3.91279e-07
ExecutionTime = 5.16 s  ClockTime = 5 s

Time = 0.6

Courant Number mean: 0.0702426 max: 0.550045
smoothSolver:  Solving for Ux, Initial residual = 0.000964734, Final residual = 3.58268e-06, No Iterations 4
smoothSolver:  Solving for Uy, Initial residual = 0.00259731, Final residual = 7.61826e-06, No Iterations 4
DICPCG:  Solving for p, Initial residual = 0.00681026, Final residual = 0.000338478, No Iterations 43
time step continuity errors : sum local = 6.0245e-09, global = 1.05579e-10, cumulative = 3.91385e-07
DICPCG:  Solving for p, Initial residual = 0.00425331, Final residual = 8.34278e-07, No Iterations 146
time step continuity errors : sum local = 1.48499e-11, global = -1.54176e-13, cumulative = 3.91384e-07
ExecutionTime = 5.24 s  ClockTime = 6 s

Time = 0.61

Courant Number mean: 0.0702506 max: 0.549481
smoothSolver:  Solving for Ux, Initial residual = 0.000953256, Final residual = 9.77233e-06, No Iterations 3
smoothSolver:  Solving for Uy, Initial residual = 0.00257343, Final residual = 7.46292e-06, No Iterations 4
DICPCG:  Solving for p, Initial residual = 0.00759875, Final residual = 0.000372381, No Iterations 45
time step continuity errors : sum local = 6.6424e-09, global = 1.11617e-09, cumulative = 3.92501e-07
DICPCG:  Solving for p, Initial residual = 0.00570688, Final residual = 9.89143e-07, No Iterations 141
time step continuity errors : sum local = 1.76534e-11, global = -3.31423e-13, cumulative = 3.925e-07
ExecutionTime = 5.31 s  ClockTime = 6 s

Time = 0.62

Courant Number mean: 0.0702586 max: 0.548937
smoothSolver:  Solving for Ux, Initial residual = 0.000940582, Final residual = 9.57741e-06, No Iterations 3
smoothSolver:  Solving for Uy, Initial residual = 0.00254449, Final residual = 7.31937e-06, No Iterations 4
DICPCG:  Solving for p, Initial residual = 0.00749057, Final residual = 0.000337054, No Iterations 44
time step continuity errors : sum local = 6.03367e-09, global = 4.85597e-10, cumulative = 3.92986e-07
DICPCG:  Solving for p, Initial residual = 0.00550914, Final residual = 9.03823e-07, No Iterations 143
time step continuity errors : sum local = 1.61879e-11, global = -2.0667e-13, cumulative = 3.92986e-07
ExecutionTime = 5.38 s  ClockTime = 6 s

Time = 0.63

Courant Number mean: 0.0702666 max: 0.548407
smoothSolver:  Solving for Ux, Initial residual = 0.000930291, Final residual = 9.34821e-06, No Iterations 3
smoothSolver:  Solving for Uy, Initial residual = 0.00252282, Final residual = 7.17141e-06, No Iterations 4
DICPCG:  Solving for p, Initial residual = 0.00732775, Final residual = 0.000345708, No Iterations 44
time step continuity errors : sum local = 6.19736e-09, global = 6.51343e-10, cumulative = 3.93637e-07
DICPCG:  Solving for p, Initial residual = 0.00541131, Final residual = 9.53078e-07, No Iterations 142
time step continuity errors : sum local = 1.70949e-11, global = -3.25443e-13, cumulative = 3.93637e-07
ExecutionTime = 5.46 s  ClockTime = 6 s

Time = 0.64

Courant Number mean: 0.0702746 max: 0.547892
smoothSolver:  Solving for Ux, Initial residual = 0.000920014, Final residual = 9.13282e-06, No Iterations 3
smoothSolver:  Solving for Uy, Initial residual = 0.00250079, Final residual = 7.02747e-06, No Iterations 4
DICPCG:  Solving for p, Initial residual = 0.00722565, Final residual = 0.000336443, No Iterations 44
time step continuity errors : sum local = 6.04328e-09, global = 5.88199e-10, cumulative = 3.94225e-07
DICPCG:  Solving for p, Initial residual = 0.0053078, Final residual = 8.74791e-07, No Iterations 143
time step continuity errors : sum local = 1.57215e-11, global = -1.99532e-13, cumulative = 3.94225e-07
ExecutionTime = 5.53 s  ClockTime = 6 s

Time = 0.65

Courant Number mean: 0.0702828 max: 0.547392
smoothSolver:  Solving for Ux, Initial residual = 0.000910115, Final residual = 8.92303e-06, No Iterations 3
smoothSolver:  Solving for Uy, Initial residual = 0.00247948, Final residual = 6.88749e-06, No Iterations 4
DICPCG:  Solving for p, Initial residual = 0.00710533, Final residual = 0.000330133, No Iterations 44
time step continuity errors : sum local = 5.94049e-09, global = 5.75549e-10, cumulative = 3.948e-07
DICPCG:  Solving for p, Initial residual = 0.00519387, Final residual = 8.95383e-07, No Iterations 143
time step continuity errors : sum local = 1.61196e-11, global = -1.94663e-13, cumulative = 3.948e-07
ExecutionTime = 5.6 s  ClockTime = 6 s

Time = 0.66

Courant Number mean: 0.0702911 max: 0.546905
smoothSolver:  Solving for Ux, Initial residual = 0.000900543, Final residual = 8.72019e-06, No Iterations 3
smoothSolver:  Solving for Uy, Initial residual = 0.00245866, Final residual = 6.75107e-06, No Iterations 4
DICPCG:  Solving for p, Initial residual = 0.00698728, Final residual = 0.000325523, No Iterations 44
time step continuity errors : sum local = 5.86774e-09, global = 5.48688e-10, cumulative = 3.95349e-07
DICPCG:  Solving for p, Initial residual = 0.00509416, Final residual = 9.2388e-07, No Iterations 143
time step continuity errors : sum local = 1.66611e-11, global = -1.86224e-13, cumulative = 3.95348e-07
ExecutionTime = 5.69 s  ClockTime = 6 s

Time = 0.67

Courant Number mean: 0.0702993 max: 0.546431
smoothSolver:  Solving for Ux, Initial residual = 0.000891305, Final residual = 8.52369e-06, No Iterations 3
smoothSolver:  Solving for Uy, Initial residual = 0.00243832, Final residual = 6.61815e-06, No Iterations 4
DICPCG:  Solving for p, Initial residual = 0.00687594, Final residual = 0.000318862, No Iterations 44
time step continuity errors : sum local = 5.75723e-09, global = 5.26489e-10, cumulative = 3.95875e-07
DICPCG:  Solving for p, Initial residual = 0.00498404, Final residual = 9.44716e-07, No Iterations 143
time step continuity errors : sum local = 1.70646e-11, global = -1.76564e-13, cumulative = 3.95875e-07
ExecutionTime = 5.76 s  ClockTime = 6 s

Time = 0.68

Courant Number mean: 0.0703075 max: 0.54597
smoothSolver:  Solving for Ux, Initial residual = 0.000882335, Final residual = 8.33333e-06, No Iterations 3
smoothSolver:  Solving for Uy, Initial residual = 0.00241907, Final residual = 6.48855e-06, No Iterations 4
DICPCG:  Solving for p, Initial residual = 0.0067658, Final residual = 0.000314276, No Iterations 44
time step continuity errors : sum local = 5.68352e-09, global = 5.02549e-10, cumulative = 3.96377e-07
DICPCG:  Solving for p, Initial residual = 0.00489337, Final residual = 9.68716e-07, No Iterations 143
time step continuity errors : sum local = 1.75257e-11, global = -1.64214e-13, cumulative = 3.96377e-07
ExecutionTime = 5.83 s  ClockTime = 6 s

Time = 0.69

Courant Number mean: 0.0703158 max: 0.545522
smoothSolver:  Solving for Ux, Initial residual = 0.000873614, Final residual = 8.14885e-06, No Iterations 3
smoothSolver:  Solving for Uy, Initial residual = 0.00240059, Final residual = 6.36225e-06, No Iterations 4
DICPCG:  Solving for p, Initial residual = 0.00666445, Final residual = 0.00030849, No Iterations 44
time step continuity errors : sum local = 5.58744e-09, global = 4.81456e-10, cumulative = 3.96859e-07
DICPCG:  Solving for p, Initial residual = 0.00478963, Final residual = 9.82857e-07, No Iterations 143
time step continuity errors : sum local = 1.78079e-11, global = -1.55744e-13, cumulative = 3.96858e-07
ExecutionTime = 5.9 s  ClockTime = 6 s

Time = 0.7

Courant Number mean: 0.070324 max: 0.545087
smoothSolver:  Solving for Ux, Initial residual = 0.000865142, Final residual = 7.96999e-06, No Iterations 3
smoothSolver:  Solving for Uy, Initial residual = 0.00238287, Final residual = 6.23912e-06, No Iterations 4
DICPCG:  Solving for p, Initial residual = 0.006561, Final residual = 0.00030375, No Iterations 44
time step continuity errors : sum local = 5.50975e-09, global = 4.58774e-10, cumulative = 3.97317e-07
DICPCG:  Solving for p, Initial residual = 0.00470768, Final residual = 9.94079e-07, No Iterations 143
time step continuity errors : sum local = 1.80378e-11, global = -1.4757e-13, cumulative = 3.97317e-07
ExecutionTime = 5.97 s  ClockTime = 6 s

Time = 0.71

Courant Number mean: 0.0703323 max: 0.544663
smoothSolver:  Solving for Ux, Initial residual = 0.00085691, Final residual = 7.79654e-06, No Iterations 3
smoothSolver:  Solving for Uy, Initial residual = 0.00236533, Final residual = 6.11912e-06, No Iterations 4
DICPCG:  Solving for p, Initial residual = 0.00646744, Final residual = 0.000299012, No Iterations 44
time step continuity errors : sum local = 5.43161e-09, global = 4.3943e-10, cumulative = 3.97757e-07
DICPCG:  Solving for p, Initial residual = 0.00461178, Final residual = 9.00906e-07, No Iterations 144
time step continuity errors : sum local = 1.63702e-11, global = 5.93844e-15, cumulative = 3.97757e-07
ExecutionTime = 6.06 s  ClockTime = 6 s

Time = 0.72

Courant Number mean: 0.0703407 max: 0.54425
smoothSolver:  Solving for Ux, Initial residual = 0.000848882, Final residual = 7.6283e-06, No Iterations 3
smoothSolver:  Solving for Uy, Initial residual = 0.00234811, Final residual = 6.00216e-06, No Iterations 4
DICPCG:  Solving for p, Initial residual = 0.00637133, Final residual = 0.000292802, No Iterations 44
time step continuity errors : sum local = 5.32619e-09, global = 4.17688e-10, cumulative = 3.98174e-07
DICPCG:  Solving for p, Initial residual = 0.00453521, Final residual = 9.03112e-07, No Iterations 144
time step continuity errors : sum local = 1.64328e-11, global = 1.24416e-14, cumulative = 3.98174e-07
ExecutionTime = 6.13 s  ClockTime = 6 s

Time = 0.73

Courant Number mean: 0.0703491 max: 0.543849
smoothSolver:  Solving for Ux, Initial residual = 0.00084105, Final residual = 7.46504e-06, No Iterations 3
smoothSolver:  Solving for Uy, Initial residual = 0.00233132, Final residual = 5.88806e-06, No Iterations 4
DICPCG:  Solving for p, Initial residual = 0.00628331, Final residual = 0.000289261, No Iterations 44
time step continuity errors : sum local = 5.26889e-09, global = 4.00133e-10, cumulative = 3.98574e-07
DICPCG:  Solving for p, Initial residual = 0.00444866, Final residual = 9.10645e-07, No Iterations 144
time step continuity errors : sum local = 1.65919e-11, global = 2.06534e-14, cumulative = 3.98574e-07
ExecutionTime = 6.2 s  ClockTime = 7 s

Time = 0.74

Courant Number mean: 0.0703574 max: 0.543458
smoothSolver:  Solving for Ux, Initial residual = 0.000833418, Final residual = 7.30664e-06, No Iterations 3
smoothSolver:  Solving for Uy, Initial residual = 0.00231474, Final residual = 5.77672e-06, No Iterations 4
DICPCG:  Solving for p, Initial residual = 0.00619545, Final residual = 0.000288374, No Iterations 44
time step continuity errors : sum local = 5.25983e-09, global = 3.8047e-10, cumulative = 3.98955e-07
DICPCG:  Solving for p, Initial residual = 0.00437425, Final residual = 8.99518e-07, No Iterations 144
time step continuity errors : sum local = 1.64118e-11, global = 3.17493e-14, cumulative = 3.98955e-07
ExecutionTime = 6.27 s  ClockTime = 7 s

Time = 0.75

Courant Number mean: 0.0703658 max: 0.543078
smoothSolver:  Solving for Ux, Initial residual = 0.000826019, Final residual = 7.15286e-06, No Iterations 3
smoothSolver:  Solving for Uy, Initial residual = 0.0022984, Final residual = 5.6681e-06, No Iterations 4
DICPCG:  Solving for p, Initial residual = 0.0061108, Final residual = 0.000278904, No Iterations 44
time step continuity errors : sum local = 5.09459e-09, global = 3.63436e-10, cumulative = 3.99318e-07
DICPCG:  Solving for p, Initial residual = 0.00428893, Final residual = 9.14498e-07, No Iterations 144
time step continuity errors : sum local = 1.67104e-11, global = 3.45072e-14, cumulative = 3.99318e-07
ExecutionTime = 6.48 s  ClockTime = 7 s

Time = 0.76

Courant Number mean: 0.0703741 max: 0.542745
smoothSolver:  Solving for Ux, Initial residual = 0.000818814, Final residual = 7.00359e-06, No Iterations 3
smoothSolver:  Solving for Uy, Initial residual = 0.00228238, Final residual = 5.56213e-06, No Iterations 4
DICPCG:  Solving for p, Initial residual = 0.00602537, Final residual = 0.000276132, No Iterations 44
time step continuity errors : sum local = 5.05171e-09, global = 3.45611e-10, cumulative = 3.99664e-07
DICPCG:  Solving for p, Initial residual = 0.00421911, Final residual = 9.11084e-07, No Iterations 144
time step continuity errors : sum local = 1.66742e-11, global = 4.03288e-14, cumulative = 3.99664e-07
ExecutionTime = 6.55 s  ClockTime = 7 s

Time = 0.77

Courant Number mean: 0.0703825 max: 0.542429
smoothSolver:  Solving for Ux, Initial residual = 0.000811794, Final residual = 6.85865e-06, No Iterations 3
smoothSolver:  Solving for Uy, Initial residual = 0.0022668, Final residual = 5.45874e-06, No Iterations 4
DICPCG:  Solving for p, Initial residual = 0.0059463, Final residual = 0.000272429, No Iterations 44
time step continuity errors : sum local = 4.99167e-09, global = 3.29198e-10, cumulative = 3.99993e-07
DICPCG:  Solving for p, Initial residual = 0.00414654, Final residual = 9.1305e-07, No Iterations 144
time step continuity errors : sum local = 1.67356e-11, global = 4.56989e-14, cumulative = 3.99993e-07
ExecutionTime = 6.63 s  ClockTime = 7 s

Time = 0.78

Courant Number mean: 0.0703909 max: 0.54212
smoothSolver:  Solving for Ux, Initial residual = 0.000804988, Final residual = 6.71782e-06, No Iterations 3
smoothSolver:  Solving for Uy, Initial residual = 0.00225133, Final residual = 5.3578e-06, No Iterations 4
DICPCG:  Solving for p, Initial residual = 0.0058678, Final residual = 0.000267417, No Iterations 44
time step continuity errors : sum local = 4.90715e-09, global = 3.13117e-10, cumulative = 4.00306e-07
DICPCG:  Solving for p, Initial residual = 0.0040769, Final residual = 9.89519e-07, No Iterations 143
time step continuity errors : sum local = 1.81637e-11, global = -6.36373e-14, cumulative = 4.00306e-07
ExecutionTime = 6.71 s  ClockTime = 7 s

Time = 0.79

Courant Number mean: 0.0703993 max: 0.54183
smoothSolver:  Solving for Ux, Initial residual = 0.000798378, Final residual = 6.58091e-06, No Iterations 3
smoothSolver:  Solving for Uy, Initial residual = 0.0022361, Final residual = 5.25924e-06, No Iterations 4
DICPCG:  Solving for p, Initial residual = 0.00579348, Final residual = 0.000264319, No Iterations 44
time step continuity errors : sum local = 4.85724e-09, global = 2.97683e-10, cumulative = 4.00604e-07
DICPCG:  Solving for p, Initial residual = 0.00401101, Final residual = 9.08148e-07, No Iterations 144
time step continuity errors : sum local = 1.66935e-11, global = 5.40645e-14, cumulative = 4.00604e-07
ExecutionTime = 6.78 s  ClockTime = 7 s

Time = 0.8

Courant Number mean: 0.0704077 max: 0.541579
smoothSolver:  Solving for Ux, Initial residual = 0.000791936, Final residual = 6.44782e-06, No Iterations 3
smoothSolver:  Solving for Uy, Initial residual = 0.00222109, Final residual = 5.16305e-06, No Iterations 4
DICPCG:  Solving for p, Initial residual = 0.00572228, Final residual = 0.000285548, No Iterations 43
time step continuity errors : sum local = 5.25458e-09, global = 2.97948e-10, cumulative = 4.00902e-07
DICPCG:  Solving for p, Initial residual = 0.00395248, Final residual = 8.95372e-07, No Iterations 144
time step continuity errors : sum local = 1.64807e-11, global = 5.31135e-14, cumulative = 4.00902e-07
ExecutionTime = 6.85 s  ClockTime = 7 s

Time = 0.81

Courant Number mean: 0.0704161 max: 0.541334
smoothSolver:  Solving for Ux, Initial residual = 0.000785645, Final residual = 6.31842e-06, No Iterations 3
smoothSolver:  Solving for Uy, Initial residual = 0.00220639, Final residual = 5.06918e-06, No Iterations 4
DICPCG:  Solving for p, Initial residual = 0.00565821, Final residual = 0.000279662, No Iterations 43
time step continuity errors : sum local = 5.15308e-09, global = 2.82733e-10, cumulative = 4.01185e-07
DICPCG:  Solving for p, Initial residual = 0.00389426, Final residual = 8.91551e-07, No Iterations 144
time step continuity errors : sum local = 1.64319e-11, global = 5.67435e-14, cumulative = 4.01185e-07
ExecutionTime = 6.92 s  ClockTime = 7 s

Time = 0.82

Courant Number mean: 0.0704245 max: 0.541096
smoothSolver:  Solving for Ux, Initial residual = 0.000779514, Final residual = 6.19254e-06, No Iterations 3
smoothSolver:  Solving for Uy, Initial residual = 0.00219192, Final residual = 4.97749e-06, No Iterations 4
DICPCG:  Solving for p, Initial residual = 0.00559101, Final residual = 0.000275262, No Iterations 43
time step continuity errors : sum local = 5.0785e-09, global = 2.70396e-10, cumulative = 4.01455e-07
DICPCG:  Solving for p, Initial residual = 0.00383405, Final residual = 8.9677e-07, No Iterations 144
time step continuity errors : sum local = 1.65488e-11, global = 5.54742e-14, cumulative = 4.01455e-07
ExecutionTime = 7 s  ClockTime = 7 s

Time = 0.83

Courant Number mean: 0.070433 max: 0.540865
smoothSolver:  Solving for Ux, Initial residual = 0.000773511, Final residual = 6.07013e-06, No Iterations 3
smoothSolver:  Solving for Uy, Initial residual = 0.00217772, Final residual = 4.88788e-06, No Iterations 4
DICPCG:  Solving for p, Initial residual = 0.00552621, Final residual = 0.000270747, No Iterations 43
time step continuity errors : sum local = 5.0015e-09, global = 2.57128e-10, cumulative = 4.01712e-07
DICPCG:  Solving for p, Initial residual = 0.00377697, Final residual = 8.88587e-07, No Iterations 144
time step continuity errors : sum local = 1.64181e-11, global = 5.64239e-14, cumulative = 4.01712e-07
ExecutionTime = 7.08 s  ClockTime = 7 s

Time = 0.84

Courant Number mean: 0.0704414 max: 0.54064
smoothSolver:  Solving for Ux, Initial residual = 0.000767642, Final residual = 5.95105e-06, No Iterations 3
smoothSolver:  Solving for Uy, Initial residual = 0.00216398, Final residual = 4.80038e-06, No Iterations 4
DICPCG:  Solving for p, Initial residual = 0.00546251, Final residual = 0.000264637, No Iterations 43
time step continuity errors : sum local = 4.8946e-09, global = 2.45804e-10, cumulative = 4.01958e-07
DICPCG:  Solving for p, Initial residual = 0.00371746, Final residual = 9.97902e-07, No Iterations 143
time step continuity errors : sum local = 1.84603e-11, global = -4.35244e-14, cumulative = 4.01958e-07
ExecutionTime = 7.15 s  ClockTime = 7 s

Time = 0.85

Courant Number mean: 0.0704498 max: 0.540422
smoothSolver:  Solving for Ux, Initial residual = 0.000761901, Final residual = 5.83517e-06, No Iterations 3
smoothSolver:  Solving for Uy, Initial residual = 0.00215055, Final residual = 4.7149e-06, No Iterations 4
DICPCG:  Solving for p, Initial residual = 0.00539973, Final residual = 0.000262925, No Iterations 43
time step continuity errors : sum local = 4.86879e-09, global = 2.32288e-10, cumulative = 4.02191e-07
DICPCG:  Solving for p, Initial residual = 0.0036675, Final residual = 8.73794e-07, No Iterations 144
time step continuity errors : sum local = 1.61839e-11, global = 6.19083e-14, cumulative = 4.02191e-07
ExecutionTime = 7.22 s  ClockTime = 8 s

Time = 0.86

Courant Number mean: 0.0704582 max: 0.540209
smoothSolver:  Solving for Ux, Initial residual = 0.000756278, Final residual = 5.72236e-06, No Iterations 3
smoothSolver:  Solving for Uy, Initial residual = 0.00213739, Final residual = 4.63134e-06, No Iterations 4
DICPCG:  Solving for p, Initial residual = 0.00533997, Final residual = 0.000255252, No Iterations 43
time step continuity errors : sum local = 4.73229e-09, global = 2.22359e-10, cumulative = 4.02413e-07
DICPCG:  Solving for p, Initial residual = 0.00360707, Final residual = 8.81066e-07, No Iterations 144
time step continuity errors : sum local = 1.63377e-11, global = 6.10425e-14, cumulative = 4.02413e-07
ExecutionTime = 7.3 s  ClockTime = 8 s

Time = 0.87

Courant Number mean: 0.0704666 max: 0.540003
smoothSolver:  Solving for Ux, Initial residual = 0.000750772, Final residual = 5.61255e-06, No Iterations 3
smoothSolver:  Solving for Uy, Initial residual = 0.00212445, Final residual = 4.54966e-06, No Iterations 4
DICPCG:  Solving for p, Initial residual = 0.00527865, Final residual = 0.000255442, No Iterations 43
time step continuity errors : sum local = 4.74126e-09, global = 2.08666e-10, cumulative = 4.02622e-07
DICPCG:  Solving for p, Initial residual = 0.00356162, Final residual = 8.65286e-07, No Iterations 144
time step continuity errors : sum local = 1.60632e-11, global = 6.50668e-14, cumulative = 4.02622e-07
ExecutionTime = 7.37 s  ClockTime = 8 s

Time = 0.88

Courant Number mean: 0.070475 max: 0.539802
smoothSolver:  Solving for Ux, Initial residual = 0.00074537, Final residual = 5.50561e-06, No Iterations 3
smoothSolver:  Solving for Uy, Initial residual = 0.00211187, Final residual = 4.46984e-06, No Iterations 4
DICPCG:  Solving for p, Initial residual = 0.00522249, Final residual = 0.00024722, No Iterations 43
time step continuity errors : sum local = 4.5937e-09, global = 2.00239e-10, cumulative = 4.02822e-07
DICPCG:  Solving for p, Initial residual = 0.00350197, Final residual = 8.70222e-07, No Iterations 144
time step continuity errors : sum local = 1.6172e-11, global = 6.05916e-14, cumulative = 4.02822e-07
ExecutionTime = 7.45 s  ClockTime = 8 s

Time = 0.89

Courant Number mean: 0.0704834 max: 0.539607
smoothSolver:  Solving for Ux, Initial residual = 0.000740101, Final residual = 5.40148e-06, No Iterations 3
smoothSolver:  Solving for Uy, Initial residual = 0.00209985, Final residual = 4.39185e-06, No Iterations 4
DICPCG:  Solving for p, Initial residual = 0.00516473, Final residual = 0.0002466, No Iterations 43
time step continuity errors : sum local = 4.58697e-09, global = 1.88077e-10, cumulative = 4.0301e-07
DICPCG:  Solving for p, Initial residual = 0.00345953, Final residual = 9.95865e-07, No Iterations 143
time step continuity errors : sum local = 1.8526e-11, global = -4.71501e-14, cumulative = 4.0301e-07
ExecutionTime = 7.52 s  ClockTime = 8 s

Time = 0.9

Courant Number mean: 0.0704918 max: 0.539418
smoothSolver:  Solving for Ux, Initial residual = 0.000734951, Final residual = 5.30009e-06, No Iterations 3
smoothSolver:  Solving for Uy, Initial residual = 0.00208809, Final residual = 4.31561e-06, No Iterations 4
DICPCG:  Solving for p, Initial residual = 0.00511233, Final residual = 0.000239086, No Iterations 43
time step continuity errors : sum local = 4.4517e-09, global = 1.79903e-10, cumulative = 4.0319e-07
DICPCG:  Solving for p, Initial residual = 0.00340561, Final residual = 8.56529e-07, No Iterations 144
time step continuity errors : sum local = 1.59497e-11, global = 6.22182e-14, cumulative = 4.0319e-07
ExecutionTime = 7.59 s  ClockTime = 8 s

Time = 0.91

Courant Number mean: 0.0705002 max: 0.539234
smoothSolver:  Solving for Ux, Initial residual = 0.000729949, Final residual = 5.20135e-06, No Iterations 3
smoothSolver:  Solving for Uy, Initial residual = 0.00207654, Final residual = 4.24106e-06, No Iterations 4
DICPCG:  Solving for p, Initial residual = 0.00505867, Final residual = 0.000238055, No Iterations 43
time step continuity errors : sum local = 4.43711e-09, global = 1.69095e-10, cumulative = 4.03359e-07
DICPCG:  Solving for p, Initial residual = 0.00336509, Final residual = 9.89853e-07, No Iterations 143
time step continuity errors : sum local = 1.84522e-11, global = -4.47298e-14, cumulative = 4.03359e-07
ExecutionTime = 7.66 s  ClockTime = 8 s

Time = 0.92

Courant Number mean: 0.0705085 max: 0.539055
smoothSolver:  Solving for Ux, Initial residual = 0.000725094, Final residual = 5.10525e-06, No Iterations 3
smoothSolver:  Solving for Uy, Initial residual = 0.00206499, Final residual = 4.16818e-06, No Iterations 4
DICPCG:  Solving for p, Initial residual = 0.00500867, Final residual = 0.000231633, No Iterations 43
time step continuity errors : sum local = 4.32206e-09, global = 1.61245e-10, cumulative = 4.0352e-07
DICPCG:  Solving for p, Initial residual = 0.003315, Final residual = 9.89935e-07, No Iterations 143
time step continuity errors : sum local = 1.8474e-11, global = -5.3358e-14, cumulative = 4.0352e-07
ExecutionTime = 7.74 s  ClockTime = 8 s

Time = 0.93

Courant Number mean: 0.0705168 max: 0.539146
smoothSolver:  Solving for Ux, Initial residual = 0.000720367, Final residual = 5.01168e-06, No Iterations 3
smoothSolver:  Solving for Uy, Initial residual = 0.00205355, Final residual = 4.0969e-06, No Iterations 4
DICPCG:  Solving for p, Initial residual = 0.00495715, Final residual = 0.000230682, No Iterations 43
time step continuity errors : sum local = 4.30901e-09, global = 1.51023e-10, cumulative = 4.03671e-07
DICPCG:  Solving for p, Initial residual = 0.00327646, Final residual = 9.86595e-07, No Iterations 143
time step continuity errors : sum local = 1.84314e-11, global = -4.93703e-14, cumulative = 4.03671e-07
ExecutionTime = 7.81 s  ClockTime = 8 s

Time = 0.94

Courant Number mean: 0.0705251 max: 0.539556
smoothSolver:  Solving for Ux, Initial residual = 0.000715741, Final residual = 4.92056e-06, No Iterations 3
smoothSolver:  Solving for Uy, Initial residual = 0.00204217, Final residual = 4.02716e-06, No Iterations 4
DICPCG:  Solving for p, Initial residual = 0.00490847, Final residual = 0.000224495, No Iterations 43
time step continuity errors : sum local = 4.19794e-09, global = 1.43863e-10, cumulative = 4.03815e-07
DICPCG:  Solving for p, Initial residual = 0.00322935, Final residual = 9.77452e-07, No Iterations 143
time step continuity errors : sum local = 1.82802e-11, global = -5.5402e-14, cumulative = 4.03815e-07
ExecutionTime = 7.89 s  ClockTime = 8 s

Time = 0.95

Courant Number mean: 0.0705334 max: 0.539948
[...]

        p

    Reconstructing volVectorFields

        U

    Reconstructing surfaceScalarFields

        phi

Reconstructing point fields

No point fields

No lagrangian fields

Time = 5.75

Reconstructing FV fields

    Reconstructing volScalarFields

        p

    Reconstructing volVectorFields

        U

    Reconstructing surfaceScalarFields

        phi

Reconstructing point fields

No point fields

No lagrangian fields

Time = 6

Reconstructing FV fields

    Reconstructing volScalarFields

        p

    Reconstructing volVectorFields

        U

    Reconstructing surfaceScalarFields

        phi

Reconstructing point fields

No point fields

No lagrangian fields

Time = 6.25

Reconstructing FV fields

    Reconstructing volScalarFields

        p

    Reconstructing volVectorFields

        U

    Reconstructing surfaceScalarFields

        phi

Reconstructing point fields

No point fields

No lagrangian fields

Time = 6.5

Reconstructing FV fields

    Reconstructing volScalarFields

        p

    Reconstructing volVectorFields

        U

    Reconstructing surfaceScalarFields

        phi

Reconstructing point fields

No point fields

No lagrangian fields

Time = 6.75

Reconstructing FV fields

    Reconstructing volScalarFields

        p

    Reconstructing volVectorFields

        U

    Reconstructing surfaceScalarFields

        phi

Reconstructing point fields

No point fields

No lagrangian fields

Time = 7

Reconstructing FV fields

    Reconstructing volScalarFields

        p

    Reconstructing volVectorFields

        U

    Reconstructing surfaceScalarFields

        phi

Reconstructing point fields

No point fields

No lagrangian fields

Time = 7.25

Reconstructing FV fields

    Reconstructing volScalarFields

        p

    Reconstructing volVectorFields

        U

    Reconstructing surfaceScalarFields

        phi

Reconstructing point fields

No point fields

No lagrangian fields

Time = 7.5

Reconstructing FV fields

    Reconstructing volScalarFields

        p

    Reconstructing volVectorFields

        U

    Reconstructing surfaceScalarFields

        phi

Reconstructing point fields

No point fields

No lagrangian fields

Time = 7.75

Reconstructing FV fields

    Reconstructing volScalarFields

        p

    Reconstructing volVectorFields

        U

    Reconstructing surfaceScalarFields

        phi

Reconstructing point fields

No point fields

No lagrangian fields

Time = 8

Reconstructing FV fields

    Reconstructing volScalarFields

        p

    Reconstructing volVectorFields

        U

    Reconstructing surfaceScalarFields

        phi

Reconstructing point fields

No point fields

No lagrangian fields

Time = 8.25

Reconstructing FV fields

    Reconstructing volScalarFields

        p

    Reconstructing volVectorFields

        U

    Reconstructing surfaceScalarFields

        phi

Reconstructing point fields

No point fields

No lagrangian fields

Time = 8.5

Reconstructing FV fields

    Reconstructing volScalarFields

        p

    Reconstructing volVectorFields

        U

    Reconstructing surfaceScalarFields

        phi

Reconstructing point fields

No point fields

No lagrangian fields

Time = 8.75

Reconstructing FV fields

    Reconstructing volScalarFields

        p

    Reconstructing volVectorFields

        U

    Reconstructing surfaceScalarFields

        phi

Reconstructing point fields

No point fields

No lagrangian fields

Time = 9

Reconstructing FV fields

    Reconstructing volScalarFields

        p

    Reconstructing volVectorFields

        U

    Reconstructing surfaceScalarFields

        phi

Reconstructing point fields

No point fields

No lagrangian fields

Time = 9.25

Reconstructing FV fields

    Reconstructing volScalarFields

        p

    Reconstructing volVectorFields

        U

    Reconstructing surfaceScalarFields

        phi

Reconstructing point fields

No point fields

No lagrangian fields

Time = 9.5

Reconstructing FV fields

    Reconstructing volScalarFields

        p

    Reconstructing volVectorFields

        U

    Reconstructing surfaceScalarFields

        phi

Reconstructing point fields

No point fields

No lagrangian fields

Time = 9.75

Reconstructing FV fields

    Reconstructing volScalarFields

        p

    Reconstructing volVectorFields

        U

    Reconstructing surfaceScalarFields

        phi

Reconstructing point fields

No point fields

No lagrangian fields

Time = 10

Reconstructing FV fields

    Reconstructing volScalarFields

        p

    Reconstructing volVectorFields

        U

    Reconstructing surfaceScalarFields

        phi

Reconstructing point fields

No point fields

No lagrangian fields

Time = 10.25

Reconstructing FV fields

    Reconstructing volScalarFields

        p

    Reconstructing volVectorFields

        U

    Reconstructing surfaceScalarFields

        phi

Reconstructing point fields

No point fields

No lagrangian fields

Time = 10.5

Reconstructing FV fields

    Reconstructing volScalarFields

        p

    Reconstructing volVectorFields

        U

    Reconstructing surfaceScalarFields

        phi

Reconstructing point fields

No point fields

No lagrangian fields

Time = 10.75

Reconstructing FV fields

    Reconstructing volScalarFields

        p

    Reconstructing volVectorFields

        U

    Reconstructing surfaceScalarFields

        phi

Reconstructing point fields

No point fields

No lagrangian fields

Time = 11

Reconstructing FV fields

    Reconstructing volScalarFields

        p

    Reconstructing volVectorFields

        U

    Reconstructing surfaceScalarFields

        phi

Reconstructing point fields

No point fields

No lagrangian fields

Time = 11.25

Reconstructing FV fields

    Reconstructing volScalarFields

        p

    Reconstructing volVectorFields

        U

    Reconstructing surfaceScalarFields

        phi

Reconstructing point fields

No point fields

No lagrangian fields

Time = 11.5

Reconstructing FV fields

    Reconstructing volScalarFields

        p

    Reconstructing volVectorFields

        U

    Reconstructing surfaceScalarFields

        phi

Reconstructing point fields

No point fields

No lagrangian fields

Time = 11.75

Reconstructing FV fields

    Reconstructing volScalarFields

        p

    Reconstructing volVectorFields

        U

    Reconstructing surfaceScalarFields

        phi

Reconstructing point fields

No point fields

No lagrangian fields

Time = 12

Reconstructing FV fields

    Reconstructing volScalarFields

        p

    Reconstructing volVectorFields

        U

    Reconstructing surfaceScalarFields

        phi

Reconstructing point fields

No point fields

No lagrangian fields

Time = 12.25

Reconstructing FV fields

    Reconstructing volScalarFields

        p

    Reconstructing volVectorFields

        U

    Reconstructing surfaceScalarFields

        phi

Reconstructing point fields

No point fields

No lagrangian fields

Time = 12.5

Reconstructing FV fields

    Reconstructing volScalarFields

        p

    Reconstructing volVectorFields

        U

    Reconstructing surfaceScalarFields

        phi

Reconstructing point fields

No point fields

No lagrangian fields

Time = 12.75

Reconstructing FV fields

    Reconstructing volScalarFields

        p

    Reconstructing volVectorFields

        U

    Reconstructing surfaceScalarFields

        phi

Reconstructing point fields

No point fields

No lagrangian fields

Time = 13

Reconstructing FV fields

    Reconstructing volScalarFields

        p

    Reconstructing volVectorFields

        U

    Reconstructing surfaceScalarFields

        phi

Reconstructing point fields

No point fields

No lagrangian fields

Time = 13.25

Reconstructing FV fields

    Reconstructing volScalarFields

        p

    Reconstructing volVectorFields

        U

    Reconstructing surfaceScalarFields

        phi

Reconstructing point fields

No point fields

No lagrangian fields

Time = 13.5

Reconstructing FV fields

    Reconstructing volScalarFields

        p

    Reconstructing volVectorFields

        U

    Reconstructing surfaceScalarFields

        phi

Reconstructing point fields

No point fields

No lagrangian fields

Time = 13.75

Reconstructing FV fields

    Reconstructing volScalarFields

        p

    Reconstructing volVectorFields

        U

    Reconstructing surfaceScalarFields

        phi

Reconstructing point fields

No point fields

No lagrangian fields

Time = 14

Reconstructing FV fields

    Reconstructing volScalarFields

        p

    Reconstructing volVectorFields

        U

    Reconstructing surfaceScalarFields

        phi

Reconstructing point fields

No point fields

No lagrangian fields

Time = 14.25

Reconstructing FV fields

    Reconstructing volScalarFields

        p

    Reconstructing volVectorFields

        U

    Reconstructing surfaceScalarFields

        phi

Reconstructing point fields

No point fields

No lagrangian fields

Time = 14.5

Reconstructing FV fields

    Reconstructing volScalarFields

        p

    Reconstructing volVectorFields

        U

    Reconstructing surfaceScalarFields

        phi

Reconstructing point fields

No point fields

No lagrangian fields

Time = 14.75

Reconstructing FV fields

    Reconstructing volScalarFields

        p

    Reconstructing volVectorFields

        U

    Reconstructing surfaceScalarFields

        phi

Reconstructing point fields

No point fields

No lagrangian fields

Time = 15

Reconstructing FV fields

    Reconstructing volScalarFields

        p

    Reconstructing volVectorFields

        U

    Reconstructing surfaceScalarFields

        phi

Reconstructing point fields

No point fields

No lagrangian fields

Time = 15.25

Reconstructing FV fields

    Reconstructing volScalarFields

        p

    Reconstructing volVectorFields

        U

    Reconstructing surfaceScalarFields

        phi

Reconstructing point fields

No point fields

No lagrangian fields

Time = 15.5

Reconstructing FV fields

    Reconstructing volScalarFields

        p

    Reconstructing volVectorFields

        U

    Reconstructing surfaceScalarFields

        phi

Reconstructing point fields

No point fields

No lagrangian fields

Time = 15.75

Reconstructing FV fields

    Reconstructing volScalarFields

        p

    Reconstructing volVectorFields

        U

    Reconstructing surfaceScalarFields

        phi

Reconstructing point fields

No point fields

No lagrangian fields

Time = 16

Reconstructing FV fields

    Reconstructing volScalarFields

        p

    Reconstructing volVectorFields

        U

    Reconstructing surfaceScalarFields

        phi

Reconstructing point fields

No point fields

No lagrangian fields

Time = 16.25

Reconstructing FV fields

    Reconstructing volScalarFields

        p

    Reconstructing volVectorFields

        U

    Reconstructing surfaceScalarFields

        phi

Reconstructing point fields

No point fields

No lagrangian fields

Time = 16.5

Reconstructing FV fields

    Reconstructing volScalarFields

        p

    Reconstructing volVectorFields

        U

    Reconstructing surfaceScalarFields

        phi

Reconstructing point fields

No point fields

No lagrangian fields

Time = 16.75

Reconstructing FV fields

    Reconstructing volScalarFields

        p

    Reconstructing volVectorFields

        U

    Reconstructing surfaceScalarFields

        phi

Reconstructing point fields

No point fields

No lagrangian fields

Time = 17

Reconstructing FV fields

    Reconstructing volScalarFields

        p

    Reconstructing volVectorFields

        U

    Reconstructing surfaceScalarFields

        phi

Reconstructing point fields

No point fields

No lagrangian fields

Time = 17.25

Reconstructing FV fields

    Reconstructing volScalarFields

        p

    Reconstructing volVectorFields

        U

    Reconstructing surfaceScalarFields

        phi

Reconstructing point fields

No point fields

No lagrangian fields

Time = 17.5

Reconstructing FV fields

    Reconstructing volScalarFields

        p

    Reconstructing volVectorFields

        U

    Reconstructing surfaceScalarFields

        phi

Reconstructing point fields

No point fields

No lagrangian fields

Time = 17.75

Reconstructing FV fields

    Reconstructing volScalarFields

        p

    Reconstructing volVectorFields

        U

    Reconstructing surfaceScalarFields

        phi

Reconstructing point fields

No point fields

No lagrangian fields

Time = 18

Reconstructing FV fields

    Reconstructing volScalarFields

        p

    Reconstructing volVectorFields

        U

    Reconstructing surfaceScalarFields

        phi

Reconstructing point fields

No point fields

No lagrangian fields

Time = 18.25

Reconstructing FV fields

    Reconstructing volScalarFields

        p

    Reconstructing volVectorFields

        U

    Reconstructing surfaceScalarFields

        phi

Reconstructing point fields

No point fields

No lagrangian fields

Time = 18.5

Reconstructing FV fields

    Reconstructing volScalarFields

        p

    Reconstructing volVectorFields

        U

    Reconstructing surfaceScalarFields

        phi

Reconstructing point fields

No point fields

No lagrangian fields

Time = 18.75

Reconstructing FV fields

    Reconstructing volScalarFields

        p

    Reconstructing volVectorFields

        U

    Reconstructing surfaceScalarFields

        phi

Reconstructing point fields

No point fields

No lagrangian fields

Time = 19

Reconstructing FV fields

    Reconstructing volScalarFields

        p

    Reconstructing volVectorFields

        U

    Reconstructing surfaceScalarFields

        phi

Reconstructing point fields

No point fields

No lagrangian fields

Time = 19.25

Reconstructing FV fields

    Reconstructing volScalarFields

        p

    Reconstructing volVectorFields

        U

    Reconstructing surfaceScalarFields

        phi

Reconstructing point fields

No point fields

No lagrangian fields

Time = 19.5

Reconstructing FV fields

    Reconstructing volScalarFields

        p

    Reconstructing volVectorFields

        U

    Reconstructing surfaceScalarFields

        phi

Reconstructing point fields

No point fields

No lagrangian fields

Time = 19.75

Reconstructing FV fields

    Reconstructing volScalarFields

        p

    Reconstructing volVectorFields

        U

    Reconstructing surfaceScalarFields

        phi

Reconstructing point fields

No point fields

No lagrangian fields

Time = 20

Reconstructing FV fields

    Reconstructing volScalarFields

        p

    Reconstructing volVectorFields

        U

    Reconstructing surfaceScalarFields

        phi

Reconstructing point fields

No point fields

No lagrangian fields

Time = 20.25

Reconstructing FV fields

    Reconstructing volScalarFields

        p

    Reconstructing volVectorFields

        U

    Reconstructing surfaceScalarFields

        phi

Reconstructing point fields

No point fields

No lagrangian fields

Time = 20.5

Reconstructing FV fields

    Reconstructing volScalarFields

        p

    Reconstructing volVectorFields

        U

    Reconstructing surfaceScalarFields

        phi

Reconstructing point fields

No point fields

No lagrangian fields

Time = 20.75

Reconstructing FV fields

    Reconstructing volScalarFields

        p

    Reconstructing volVectorFields

        U

    Reconstructing surfaceScalarFields

        phi

Reconstructing point fields

No point fields

No lagrangian fields

Time = 21

Reconstructing FV fields

    Reconstructing volScalarFields

        p

    Reconstructing volVectorFields

        U

    Reconstructing surfaceScalarFields

        phi

Reconstructing point fields

No point fields

No lagrangian fields

Time = 21.25

Reconstructing FV fields

    Reconstructing volScalarFields

        p

    Reconstructing volVectorFields

        U

    Reconstructing surfaceScalarFields

        phi

Reconstructing point fields

No point fields

No lagrangian fields

Time = 21.5

Reconstructing FV fields

    Reconstructing volScalarFields

        p

    Reconstructing volVectorFields

        U

    Reconstructing surfaceScalarFields

        phi

Reconstructing point fields

No point fields

No lagrangian fields

Time = 21.75

Reconstructing FV fields

    Reconstructing volScalarFields

        p

    Reconstructing volVectorFields

        U

    Reconstructing surfaceScalarFields

        phi

Reconstructing point fields

No point fields

No lagrangian fields

Time = 22

Reconstructing FV fields

    Reconstructing volScalarFields

        p

    Reconstructing volVectorFields

        U

    Reconstructing surfaceScalarFields

        phi

Reconstructing point fields

No point fields

No lagrangian fields

Time = 22.25

Reconstructing FV fields

    Reconstructing volScalarFields

        p

    Reconstructing volVectorFields

        U

    Reconstructing surfaceScalarFields

        phi

Reconstructing point fields

No point fields

No lagrangian fields

Time = 22.5

Reconstructing FV fields

    Reconstructing volScalarFields

        p

    Reconstructing volVectorFields

        U

    Reconstructing surfaceScalarFields

        phi

Reconstructing point fields

No point fields

No lagrangian fields

Time = 22.75

Reconstructing FV fields

    Reconstructing volScalarFields

        p

    Reconstructing volVectorFields

        U

    Reconstructing surfaceScalarFields

        phi

Reconstructing point fields

No point fields

No lagrangian fields

Time = 23

Reconstructing FV fields

    Reconstructing volScalarFields

        p

    Reconstructing volVectorFields

        U

    Reconstructing surfaceScalarFields

        phi

Reconstructing point fields

No point fields

No lagrangian fields

Time = 23.25

Reconstructing FV fields

    Reconstructing volScalarFields

        p

    Reconstructing volVectorFields

        U

    Reconstructing surfaceScalarFields

        phi

Reconstructing point fields

No point fields

No lagrangian fields

Time = 23.5

Reconstructing FV fields

    Reconstructing volScalarFields

        p

    Reconstructing volVectorFields

        U

    Reconstructing surfaceScalarFields

        phi

Reconstructing point fields

No point fields

No lagrangian fields

Time = 23.75

Reconstructing FV fields

    Reconstructing volScalarFields

        p

    Reconstructing volVectorFields

        U

    Reconstructing surfaceScalarFields

        phi

Reconstructing point fields

No point fields

No lagrangian fields

Time = 24

Reconstructing FV fields

    Reconstructing volScalarFields

        p

    Reconstructing volVectorFields

        U

    Reconstructing surfaceScalarFields

        phi

Reconstructing point fields

No point fields

No lagrangian fields

Time = 24.25

Reconstructing FV fields

    Reconstructing volScalarFields

        p

    Reconstructing volVectorFields

        U

    Reconstructing surfaceScalarFields

        phi

Reconstructing point fields

No point fields

No lagrangian fields

Time = 24.5

Reconstructing FV fields

    Reconstructing volScalarFields

        p

    Reconstructing volVectorFields

        U

    Reconstructing surfaceScalarFields

        phi

Reconstructing point fields

No point fields

No lagrangian fields

Time = 24.75

Reconstructing FV fields

    Reconstructing volScalarFields

        p

    Reconstructing volVectorFields

        U

    Reconstructing surfaceScalarFields

        phi

Reconstructing point fields

No point fields

No lagrangian fields

Time = 25

Reconstructing FV fields

    Reconstructing volScalarFields

        p

    Reconstructing volVectorFields

        U

    Reconstructing surfaceScalarFields

        phi

Reconstructing point fields

No point fields

No lagrangian fields


End

