/*---------------------------------------------------------------------------*\
| =========                 |                                                 |
| \\      /  F ield         | OpenFOAM: The Open Source CFD Toolbox           |
|  \\    /   O peration     | Version:  v1912                                 |
|   \\  /    A nd           | Website:  www.openfoam.com                      |
|    \\/     M anipulation  |                                                 |
\*---------------------------------------------------------------------------*/
Build  : _f3950763fe-20191219 OPENFOAM=1912
Arch   : "LSB;label=32;scalar=64"
Exec   : icoFoam
Date   : May 13 2020
Time   : 17:23:45
Host   : 0727d5773fe8
PID    : 462
I/O    : uncollated
Case   : /home/ofuser/workingDir/CFD/FinalProject/CFD-Final-Project/circular-cylinder-10-1
nProcs : 1
trapFpe: Floating point exception trapping enabled (FOAM_SIGFPE).
fileModificationChecking : Monitoring run-time modified files using timeStampMaster (fileModificationSkew 10)
allowSystemOperations : Allowing user-supplied system call operations

// * * * * * * * * * * * * * * * * * * * * * * * * * * * * * * * * * * * * * //
Create time

Create mesh for time = 0


PISO: Operating solver in PISO mode

Reading transportProperties

Reading field p

Reading field U

Reading/calculating face flux field phi


Starting time loop

Time = 0.01

Courant Number mean: 0.0338546 max: 0.29845
smoothSolver:  Solving for Ux, Initial residual = 1, Final residual = 2.03491e-06, No Iterations 5
smoothSolver:  Solving for Uy, Initial residual = 1, Final residual = 1.91128e-06, No Iterations 5
DICPCG:  Solving for p, Initial residual = 1, Final residual = 0.0390462, No Iterations 51
time step continuity errors : sum local = 7.2172e-06, global = 1.6225e-07, cumulative = 1.6225e-07
DICPCG:  Solving for p, Initial residual = 0.222489, Final residual = 7.05938e-07, No Iterations 89
time step continuity errors : sum local = 4.40412e-10, global = 1.81363e-12, cumulative = 1.62252e-07
ExecutionTime = 0.04 s  ClockTime = 1 s

Time = 0.02

Courant Number mean: 0.0350536 max: 0.388913
smoothSolver:  Solving for Ux, Initial residual = 0.310363, Final residual = 1.85476e-06, No Iterations 4
smoothSolver:  Solving for Uy, Initial residual = 0.330204, Final residual = 2.05032e-06, No Iterations 4
DICPCG:  Solving for p, Initial residual = 0.419152, Final residual = 0.0176301, No Iterations 53
time step continuity errors : sum local = 9.70695e-06, global = -2.56331e-07, cumulative = -9.40792e-08
DICPCG:  Solving for p, Initial residual = 0.481144, Final residual = 7.00255e-07, No Iterations 92
time step continuity errors : sum local = 2.04101e-10, global = -6.49592e-14, cumulative = -9.40792e-08
ExecutionTime = 0.05 s  ClockTime = 1 s

Time = 0.03

Courant Number mean: 0.0350574 max: 0.386465
smoothSolver:  Solving for Ux, Initial residual = 0.0283536, Final residual = 4.66891e-06, No Iterations 3
smoothSolver:  Solving for Uy, Initial residual = 0.0288224, Final residual = 1.44515e-06, No Iterations 3
DICPCG:  Solving for p, Initial residual = 0.5691, Final residual = 0.0273114, No Iterations 20
time step continuity errors : sum local = 2.99332e-06, global = -6.16903e-08, cumulative = -1.55769e-07
DICPCG:  Solving for p, Initial residual = 0.219224, Final residual = 8.24426e-07, No Iterations 84
time step continuity errors : sum local = 5.06869e-11, global = 1.5867e-13, cumulative = -1.55769e-07
ExecutionTime = 0.05 s  ClockTime = 1 s

Time = 0.04

Courant Number mean: 0.0350467 max: 0.374574
smoothSolver:  Solving for Ux, Initial residual = 0.0224048, Final residual = 2.4351e-06, No Iterations 3
smoothSolver:  Solving for Uy, Initial residual = 0.0204187, Final residual = 1.52817e-06, No Iterations 3
DICPCG:  Solving for p, Initial residual = 0.164283, Final residual = 0.00726522, No Iterations 21
time step continuity errors : sum local = 4.53237e-07, global = 7.95391e-08, cumulative = -7.62302e-08
DICPCG:  Solving for p, Initial residual = 0.0357202, Final residual = 6.72275e-07, No Iterations 81
time step continuity errors : sum local = 3.69968e-11, global = 1.1228e-13, cumulative = -7.62301e-08
ExecutionTime = 0.06 s  ClockTime = 1 s

Time = 0.05

Courant Number mean: 0.0350392 max: 0.362575
smoothSolver:  Solving for Ux, Initial residual = 0.0154912, Final residual = 1.79433e-06, No Iterations 3
smoothSolver:  Solving for Uy, Initial residual = 0.0166684, Final residual = 1.32576e-06, No Iterations 3
DICPCG:  Solving for p, Initial residual = 0.110839, Final residual = 0.00518661, No Iterations 23
time step continuity errors : sum local = 2.54271e-07, global = 3.41004e-08, cumulative = -4.21297e-08
DICPCG:  Solving for p, Initial residual = 0.0257076, Final residual = 8.36054e-07, No Iterations 80
time step continuity errors : sum local = 3.83884e-11, global = -4.04026e-14, cumulative = -4.21298e-08
ExecutionTime = 0.07 s  ClockTime = 1 s

Time = 0.06

Courant Number mean: 0.0350334 max: 0.350929
smoothSolver:  Solving for Ux, Initial residual = 0.0118028, Final residual = 1.41004e-06, No Iterations 3
smoothSolver:  Solving for Uy, Initial residual = 0.0143104, Final residual = 1.16096e-06, No Iterations 3
DICPCG:  Solving for p, Initial residual = 0.0822979, Final residual = 0.00374195, No Iterations 25
time step continuity errors : sum local = 1.59446e-07, global = 3.40686e-08, cumulative = -8.06116e-09
DICPCG:  Solving for p, Initial residual = 0.0194964, Final residual = 6.98772e-07, No Iterations 80
time step continuity errors : sum local = 2.85325e-11, global = 1.32002e-13, cumulative = -8.06103e-09
ExecutionTime = 0.07 s  ClockTime = 1 s

Time = 0.07

Courant Number mean: 0.0350288 max: 0.346516
smoothSolver:  Solving for Ux, Initial residual = 0.00944812, Final residual = 1.15421e-06, No Iterations 3
smoothSolver:  Solving for Uy, Initial residual = 0.0125045, Final residual = 1.03377e-06, No Iterations 3
DICPCG:  Solving for p, Initial residual = 0.0653154, Final residual = 0.00303525, No Iterations 25
time step continuity errors : sum local = 1.1678e-07, global = 2.53108e-08, cumulative = 1.72498e-08
DICPCG:  Solving for p, Initial residual = 0.0164417, Final residual = 8.3525e-07, No Iterations 79
time step continuity errors : sum local = 3.11957e-11, global = -1.38965e-13, cumulative = 1.72496e-08
ExecutionTime = 0.08 s  ClockTime = 1 s

Time = 0.08

Courant Number mean: 0.0350251 max: 0.342633
smoothSolver:  Solving for Ux, Initial residual = 0.00784269, Final residual = 9.72379e-07, No Iterations 3
smoothSolver:  Solving for Uy, Initial residual = 0.0110957, Final residual = 9.31648e-07, No Iterations 3
DICPCG:  Solving for p, Initial residual = 0.0541943, Final residual = 0.00256282, No Iterations 25
time step continuity errors : sum local = 9.11906e-08, global = 1.90832e-08, cumulative = 3.63328e-08
DICPCG:  Solving for p, Initial residual = 0.0142346, Final residual = 7.95906e-07, No Iterations 79
time step continuity errors : sum local = 2.76468e-11, global = -2.07009e-13, cumulative = 3.63326e-08
ExecutionTime = 0.09 s  ClockTime = 1 s

Time = 0.09

Courant Number mean: 0.0350219 max: 0.338486
smoothSolver:  Solving for Ux, Initial residual = 0.00669134, Final residual = 8.38076e-07, No Iterations 3
smoothSolver:  Solving for Uy, Initial residual = 0.00998872, Final residual = 8.47272e-07, No Iterations 3
DICPCG:  Solving for p, Initial residual = 0.0459154, Final residual = 0.00210598, No Iterations 25
time step continuity errors : sum local = 7.02951e-08, global = 1.49033e-08, cumulative = 5.1236e-08
DICPCG:  Solving for p, Initial residual = 0.012536, Final residual = 9.88522e-07, No Iterations 78
time step continuity errors : sum local = 3.23481e-11, global = -4.88456e-13, cumulative = 5.12355e-08
ExecutionTime = 0.09 s  ClockTime = 1 s

Time = 0.1

Courant Number mean: 0.0350194 max: 0.334236
smoothSolver:  Solving for Ux, Initial residual = 0.0058308, Final residual = 7.34864e-07, No Iterations 3
smoothSolver:  Solving for Uy, Initial residual = 0.00911162, Final residual = 7.76262e-07, No Iterations 3
DICPCG:  Solving for p, Initial residual = 0.0403664, Final residual = 0.00181478, No Iterations 25
time step continuity errors : sum local = 5.74156e-08, global = 1.17719e-08, cumulative = 6.30073e-08
DICPCG:  Solving for p, Initial residual = 0.0111816, Final residual = 8.63748e-07, No Iterations 78
time step continuity errors : sum local = 2.68727e-11, global = -4.28578e-13, cumulative = 6.30069e-08
ExecutionTime = 0.1 s  ClockTime = 1 s

Time = 0.11

Courant Number mean: 0.0350172 max: 0.330268
smoothSolver:  Solving for Ux, Initial residual = 0.0051639, Final residual = 9.25112e-06, No Iterations 2
smoothSolver:  Solving for Uy, Initial residual = 0.00840936, Final residual = 7.1641e-07, No Iterations 3
DICPCG:  Solving for p, Initial residual = 0.0357611, Final residual = 0.00177893, No Iterations 24
time step continuity errors : sum local = 5.3789e-08, global = 9.04595e-09, cumulative = 7.20529e-08
DICPCG:  Solving for p, Initial residual = 0.0101375, Final residual = 7.26077e-07, No Iterations 78
time step continuity errors : sum local = 2.16361e-11, global = -3.78109e-13, cumulative = 7.20525e-08
ExecutionTime = 0.11 s  ClockTime = 1 s

Time = 0.12

Courant Number mean: 0.0350154 max: 0.326375
smoothSolver:  Solving for Ux, Initial residual = 0.00463209, Final residual = 8.28698e-06, No Iterations 2
smoothSolver:  Solving for Uy, Initial residual = 0.00782118, Final residual = 9.67552e-06, No Iterations 2
DICPCG:  Solving for p, Initial residual = 0.0321739, Final residual = 0.00160497, No Iterations 23
time step continuity errors : sum local = 4.66423e-08, global = 6.73732e-09, cumulative = 7.87898e-08
DICPCG:  Solving for p, Initial residual = 0.00934233, Final residual = 8.82181e-07, No Iterations 77
time step continuity errors : sum local = 2.53195e-11, global = -4.75004e-13, cumulative = 7.87893e-08
ExecutionTime = 0.11 s  ClockTime = 1 s

Time = 0.13

Courant Number mean: 0.0350142 max: 0.322598
smoothSolver:  Solving for Ux, Initial residual = 0.00420355, Final residual = 7.4938e-06, No Iterations 2
smoothSolver:  Solving for Uy, Initial residual = 0.0073228, Final residual = 9.00831e-06, No Iterations 2
DICPCG:  Solving for p, Initial residual = 0.0290489, Final residual = 0.00139006, No Iterations 23
time step continuity errors : sum local = 3.90197e-08, global = 5.63523e-09, cumulative = 8.44246e-08
DICPCG:  Solving for p, Initial residual = 0.00855155, Final residual = 8.07749e-07, No Iterations 77
time step continuity errors : sum local = 2.24168e-11, global = -4.2263e-13, cumulative = 8.44241e-08
ExecutionTime = 0.12 s  ClockTime = 1 s

Time = 0.14

Courant Number mean: 0.0350132 max: 0.318979
smoothSolver:  Solving for Ux, Initial residual = 0.00385262, Final residual = 6.824e-06, No Iterations 2
smoothSolver:  Solving for Uy, Initial residual = 0.00689679, Final residual = 8.43639e-06, No Iterations 2
DICPCG:  Solving for p, Initial residual = 0.0263676, Final residual = 0.00123738, No Iterations 23
time step continuity errors : sum local = 3.36792e-08, global = 4.82759e-09, cumulative = 8.92517e-08
DICPCG:  Solving for p, Initial residual = 0.00785709, Final residual = 9.48709e-07, No Iterations 76
time step continuity errors : sum local = 2.55655e-11, global = -2.8991e-13, cumulative = 8.92514e-08
ExecutionTime = 0.13 s  ClockTime = 1 s

Time = 0.15

Courant Number mean: 0.0350125 max: 0.315522
smoothSolver:  Solving for Ux, Initial residual = 0.00356098, Final residual = 6.25195e-06, No Iterations 2
smoothSolver:  Solving for Uy, Initial residual = 0.00653053, Final residual = 7.92956e-06, No Iterations 2
DICPCG:  Solving for p, Initial residual = 0.0244268, Final residual = 0.00112003, No Iterations 23
time step continuity errors : sum local = 2.96757e-08, global = 4.18545e-09, cumulative = 9.34369e-08
DICPCG:  Solving for p, Initial residual = 0.0073202, Final residual = 9.93892e-07, No Iterations 75
time step continuity errors : sum local = 2.61055e-11, global = -1.7574e-13, cumulative = 9.34367e-08
ExecutionTime = 0.13 s  ClockTime = 1 s

Time = 0.16

Courant Number mean: 0.0350122 max: 0.312389
smoothSolver:  Solving for Ux, Initial residual = 0.00331238, Final residual = 5.75913e-06, No Iterations 2
smoothSolver:  Solving for Uy, Initial residual = 0.00621381, Final residual = 7.47583e-06, No Iterations 2
DICPCG:  Solving for p, Initial residual = 0.0229127, Final residual = 0.00101937, No Iterations 23
time step continuity errors : sum local = 2.63601e-08, global = 3.68405e-09, cumulative = 9.71207e-08
DICPCG:  Solving for p, Initial residual = 0.00692185, Final residual = 8.93181e-07, No Iterations 75
time step continuity errors : sum local = 2.29067e-11, global = -1.54157e-13, cumulative = 9.71206e-08
ExecutionTime = 0.14 s  ClockTime = 1 s

Time = 0.17

Courant Number mean: 0.0350122 max: 0.310687
smoothSolver:  Solving for Ux, Initial residual = 0.00309803, Final residual = 5.33028e-06, No Iterations 2
smoothSolver:  Solving for Uy, Initial residual = 0.00593252, Final residual = 7.07081e-06, No Iterations 2
DICPCG:  Solving for p, Initial residual = 0.0207502, Final residual = 0.000942648, No Iterations 23
time step continuity errors : sum local = 2.38527e-08, global = 3.26917e-09, cumulative = 1.0039e-07
DICPCG:  Solving for p, Initial residual = 0.0064506, Final residual = 7.86277e-07, No Iterations 75
time step continuity errors : sum local = 1.97595e-11, global = -1.00584e-13, cumulative = 1.0039e-07
ExecutionTime = 0.15 s  ClockTime = 1 s

Time = 0.18

Courant Number mean: 0.0350124 max: 0.308982
smoothSolver:  Solving for Ux, Initial residual = 0.00291174, Final residual = 4.95603e-06, No Iterations 2
smoothSolver:  Solving for Uy, Initial residual = 0.00568112, Final residual = 6.7075e-06, No Iterations 2
DICPCG:  Solving for p, Initial residual = 0.0193088, Final residual = 0.000868779, No Iterations 23
time step continuity errors : sum local = 2.1572e-08, global = 2.93363e-09, cumulative = 1.03323e-07
DICPCG:  Solving for p, Initial residual = 0.00607148, Final residual = 9.53272e-07, No Iterations 74
time step continuity errors : sum local = 2.35287e-11, global = 2.9368e-14, cumulative = 1.03323e-07
ExecutionTime = 0.15 s  ClockTime = 1 s

Time = 0.19

Courant Number mean: 0.0350131 max: 0.307289
smoothSolver:  Solving for Ux, Initial residual = 0.00274865, Final residual = 4.62551e-06, No Iterations 2
smoothSolver:  Solving for Uy, Initial residual = 0.00545531, Final residual = 6.38175e-06, No Iterations 2
DICPCG:  Solving for p, Initial residual = 0.0183973, Final residual = 0.000830543, No Iterations 23
time step continuity errors : sum local = 2.02769e-08, global = 2.64176e-09, cumulative = 1.05965e-07
DICPCG:  Solving for p, Initial residual = 0.00573205, Final residual = 8.61163e-07, No Iterations 74
time step continuity errors : sum local = 2.09116e-11, global = 7.58886e-14, cumulative = 1.05965e-07
ExecutionTime = 0.16 s  ClockTime = 1 s

Time = 0.2

Courant Number mean: 0.0350142 max: 0.305619
smoothSolver:  Solving for Ux, Initial residual = 0.00260567, Final residual = 4.33e-06, No Iterations 2
smoothSolver:  Solving for Uy, Initial residual = 0.00525253, Final residual = 6.08734e-06, No Iterations 2
DICPCG:  Solving for p, Initial residual = 0.0176857, Final residual = 0.000785117, No Iterations 23
time step continuity errors : sum local = 1.88693e-08, global = 2.40656e-09, cumulative = 1.08372e-07
DICPCG:  Solving for p, Initial residual = 0.00555654, Final residual = 6.96197e-07, No Iterations 74
time step continuity errors : sum local = 1.66454e-11, global = 1.38724e-13, cumulative = 1.08372e-07
ExecutionTime = 0.17 s  ClockTime = 1 s

Time = 0.21

Courant Number mean: 0.0350155 max: 0.303982
smoothSolver:  Solving for Ux, Initial residual = 0.00247932, Final residual = 4.06484e-06, No Iterations 2
smoothSolver:  Solving for Uy, Initial residual = 0.0050708, Final residual = 5.81715e-06, No Iterations 2
DICPCG:  Solving for p, Initial residual = 0.0162745, Final residual = 0.000725155, No Iterations 23
time step continuity errors : sum local = 1.71787e-08, global = 2.23325e-09, cumulative = 1.10605e-07
DICPCG:  Solving for p, Initial residual = 0.00519679, Final residual = 9.89473e-07, No Iterations 73
time step continuity errors : sum local = 2.33345e-11, global = 1.79181e-13, cumulative = 1.10605e-07
ExecutionTime = 0.17 s  ClockTime = 1 s

Time = 0.22

Courant Number mean: 0.0350169 max: 0.302381
smoothSolver:  Solving for Ux, Initial residual = 0.00236564, Final residual = 3.82572e-06, No Iterations 2
smoothSolver:  Solving for Uy, Initial residual = 0.00490402, Final residual = 5.56568e-06, No Iterations 2
DICPCG:  Solving for p, Initial residual = 0.0152157, Final residual = 0.000697809, No Iterations 23
time step continuity errors : sum local = 1.63169e-08, global = 2.04333e-09, cumulative = 1.12649e-07
DICPCG:  Solving for p, Initial residual = 0.00493906, Final residual = 9.46551e-07, No Iterations 73
time step continuity errors : sum local = 2.20408e-11, global = 2.41541e-13, cumulative = 1.12649e-07
ExecutionTime = 0.18 s  ClockTime = 1 s

Time = 0.23

Courant Number mean: 0.0350183 max: 0.300926
smoothSolver:  Solving for Ux, Initial residual = 0.00226273, Final residual = 3.60948e-06, No Iterations 2
smoothSolver:  Solving for Uy, Initial residual = 0.00475063, Final residual = 5.33535e-06, No Iterations 2
DICPCG:  Solving for p, Initial residual = 0.0146785, Final residual = 0.000675661, No Iterations 23
time step continuity errors : sum local = 1.56143e-08, global = 1.88105e-09, cumulative = 1.1453e-07
DICPCG:  Solving for p, Initial residual = 0.00477441, Final residual = 9.10945e-07, No Iterations 73
time step continuity errors : sum local = 2.09745e-11, global = 2.88337e-13, cumulative = 1.1453e-07
ExecutionTime = 0.19 s  ClockTime = 1 s

Time = 0.24

Courant Number mean: 0.0350199 max: 0.299592
smoothSolver:  Solving for Ux, Initial residual = 0.00216934, Final residual = 3.41351e-06, No Iterations 2
smoothSolver:  Solving for Uy, Initial residual = 0.00460886, Final residual = 5.12391e-06, No Iterations 2
DICPCG:  Solving for p, Initial residual = 0.0137857, Final residual = 0.000641593, No Iterations 23
time step continuity errors : sum local = 1.46698e-08, global = 1.76447e-09, cumulative = 1.16295e-07
DICPCG:  Solving for p, Initial residual = 0.00450621, Final residual = 8.89666e-07, No Iterations 73
time step continuity errors : sum local = 2.02756e-11, global = 3.22671e-13, cumulative = 1.16295e-07
ExecutionTime = 0.19 s  ClockTime = 1 s

Time = 0.25

Courant Number mean: 0.0350216 max: 0.2983
smoothSolver:  Solving for Ux, Initial residual = 0.00208419, Final residual = 3.23478e-06, No Iterations 2
smoothSolver:  Solving for Uy, Initial residual = 0.00447894, Final residual = 4.93061e-06, No Iterations 2
DICPCG:  Solving for p, Initial residual = 0.0132337, Final residual = 0.000623836, No Iterations 23
time step continuity errors : sum local = 1.4127e-08, global = 1.63278e-09, cumulative = 1.17928e-07
DICPCG:  Solving for p, Initial residual = 0.00433991, Final residual = 9.29788e-07, No Iterations 73
time step continuity errors : sum local = 2.09954e-11, global = 3.81531e-13, cumulative = 1.17928e-07
ExecutionTime = 0.21 s  ClockTime = 1 s

Time = 0.26

Courant Number mean: 0.0350234 max: 0.29705
smoothSolver:  Solving for Ux, Initial residual = 0.0020062, Final residual = 3.07212e-06, No Iterations 2
smoothSolver:  Solving for Uy, Initial residual = 0.00435873, Final residual = 4.75196e-06, No Iterations 2
DICPCG:  Solving for p, Initial residual = 0.0128031, Final residual = 0.00060043, No Iterations 23
time step continuity errors : sum local = 1.3481e-08, global = 1.52545e-09, cumulative = 1.19454e-07
DICPCG:  Solving for p, Initial residual = 0.00416691, Final residual = 8.95487e-07, No Iterations 73
time step continuity errors : sum local = 2.00566e-11, global = 4.01273e-13, cumulative = 1.19454e-07
ExecutionTime = 0.21 s  ClockTime = 1 s

Time = 0.27

Courant Number mean: 0.0350253 max: 0.295842
smoothSolver:  Solving for Ux, Initial residual = 0.00193492, Final residual = 2.92417e-06, No Iterations 2
smoothSolver:  Solving for Uy, Initial residual = 0.00424749, Final residual = 4.58417e-06, No Iterations 2
DICPCG:  Solving for p, Initial residual = 0.0125647, Final residual = 0.000564342, No Iterations 23
time step continuity errors : sum local = 1.25709e-08, global = 1.49411e-09, cumulative = 1.20948e-07
DICPCG:  Solving for p, Initial residual = 0.00405868, Final residual = 9.00783e-07, No Iterations 73
time step continuity errors : sum local = 2.00187e-11, global = 3.97586e-13, cumulative = 1.20949e-07
ExecutionTime = 0.22 s  ClockTime = 1 s

Time = 0.28

Courant Number mean: 0.0350274 max: 0.294678
smoothSolver:  Solving for Ux, Initial residual = 0.00186988, Final residual = 2.78776e-06, No Iterations 2
smoothSolver:  Solving for Uy, Initial residual = 0.00414432, Final residual = 4.42818e-06, No Iterations 2
DICPCG:  Solving for p, Initial residual = 0.0115913, Final residual = 0.000541977, No Iterations 23
time step continuity errors : sum local = 1.19836e-08, global = 1.37123e-09, cumulative = 1.2232e-07
DICPCG:  Solving for p, Initial residual = 0.0038153, Final residual = 9.19911e-07, No Iterations 73
time step continuity errors : sum local = 2.02982e-11, global = 4.42184e-13, cumulative = 1.2232e-07
ExecutionTime = 0.23 s  ClockTime = 1 s

Time = 0.29

Courant Number mean: 0.0350295 max: 0.293554
smoothSolver:  Solving for Ux, Initial residual = 0.00180958, Final residual = 2.66169e-06, No Iterations 2
smoothSolver:  Solving for Uy, Initial residual = 0.00404907, Final residual = 4.2812e-06, No Iterations 2
DICPCG:  Solving for p, Initial residual = 0.0111876, Final residual = 0.000524927, No Iterations 23
time step continuity errors : sum local = 1.15289e-08, global = 1.28699e-09, cumulative = 1.23607e-07
DICPCG:  Solving for p, Initial residual = 0.00366325, Final residual = 9.22814e-07, No Iterations 73
time step continuity errors : sum local = 2.02314e-11, global = 4.57381e-13, cumulative = 1.23608e-07
ExecutionTime = 0.23 s  ClockTime = 1 s

Time = 0.3

Courant Number mean: 0.0350319 max: 0.292471
smoothSolver:  Solving for Ux, Initial residual = 0.00175353, Final residual = 2.5452e-06, No Iterations 2
smoothSolver:  Solving for Uy, Initial residual = 0.00395968, Final residual = 4.14404e-06, No Iterations 2
DICPCG:  Solving for p, Initial residual = 0.0109085, Final residual = 0.000501782, No Iterations 23
time step continuity errors : sum local = 1.09526e-08, global = 1.22136e-09, cumulative = 1.24829e-07
DICPCG:  Solving for p, Initial residual = 0.00355812, Final residual = 9.56938e-07, No Iterations 73
time step continuity errors : sum local = 2.08532e-11, global = 4.62198e-13, cumulative = 1.24829e-07
ExecutionTime = 0.24 s  ClockTime = 1 s

Time = 0.31

Courant Number mean: 0.0350344 max: 0.291426
smoothSolver:  Solving for Ux, Initial residual = 0.00170122, Final residual = 2.43743e-06, No Iterations 2
smoothSolver:  Solving for Uy, Initial residual = 0.00387567, Final residual = 4.01746e-06, No Iterations 2
DICPCG:  Solving for p, Initial residual = 0.0104048, Final residual = 0.000482527, No Iterations 23
time step continuity errors : sum local = 1.04726e-08, global = 1.15442e-09, cumulative = 1.25984e-07
DICPCG:  Solving for p, Initial residual = 0.00337801, Final residual = 9.30719e-07, No Iterations 73
time step continuity errors : sum local = 2.017e-11, global = 4.69044e-13, cumulative = 1.25984e-07
ExecutionTime = 0.25 s  ClockTime = 1 s

Time = 0.32

Courant Number mean: 0.0350369 max: 0.290419
smoothSolver:  Solving for Ux, Initial residual = 0.00165231, Final residual = 2.33783e-06, No Iterations 2
smoothSolver:  Solving for Uy, Initial residual = 0.00379722, Final residual = 3.89816e-06, No Iterations 2
DICPCG:  Solving for p, Initial residual = 0.0101771, Final residual = 0.00046971, No Iterations 23
time step continuity errors : sum local = 1.0142e-08, global = 1.094e-09, cumulative = 1.27078e-07
DICPCG:  Solving for p, Initial residual = 0.00326052, Final residual = 9.00831e-07, No Iterations 73
time step continuity errors : sum local = 1.94254e-11, global = 4.6522e-13, cumulative = 1.27079e-07
ExecutionTime = 0.25 s  ClockTime = 1 s

Time = 0.33

Courant Number mean: 0.0350394 max: 0.289446
smoothSolver:  Solving for Ux, Initial residual = 0.00160647, Final residual = 2.24509e-06, No Iterations 2
smoothSolver:  Solving for Uy, Initial residual = 0.00372408, Final residual = 3.78509e-06, No Iterations 2
DICPCG:  Solving for p, Initial residual = 0.010134, Final residual = 0.00050159, No Iterations 22
time step continuity errors : sum local = 1.07824e-08, global = 9.75898e-10, cumulative = 1.28055e-07
DICPCG:  Solving for p, Initial residual = 0.00319682, Final residual = 9.18347e-07, No Iterations 73
time step continuity errors : sum local = 1.97252e-11, global = 4.83712e-13, cumulative = 1.28055e-07
ExecutionTime = 0.26 s  ClockTime = 1 s

Time = 0.34

Courant Number mean: 0.035042 max: 0.288509
smoothSolver:  Solving for Ux, Initial residual = 0.00156349, Final residual = 2.15832e-06, No Iterations 2
smoothSolver:  Solving for Uy, Initial residual = 0.00365528, Final residual = 3.67783e-06, No Iterations 2
DICPCG:  Solving for p, Initial residual = 0.00984233, Final residual = 0.000473117, No Iterations 22
time step continuity errors : sum local = 1.01317e-08, global = 9.74051e-10, cumulative = 1.29029e-07
DICPCG:  Solving for p, Initial residual = 0.00308518, Final residual = 9.07216e-07, No Iterations 73
time step continuity errors : sum local = 1.94137e-11, global = 4.62536e-13, cumulative = 1.2903e-07
ExecutionTime = 0.27 s  ClockTime = 1 s

Time = 0.35

Courant Number mean: 0.0350447 max: 0.287604
smoothSolver:  Solving for Ux, Initial residual = 0.00152334, Final residual = 2.07689e-06, No Iterations 2
smoothSolver:  Solving for Uy, Initial residual = 0.00358923, Final residual = 3.57602e-06, No Iterations 2
DICPCG:  Solving for p, Initial residual = 0.00969261, Final residual = 0.000439866, No Iterations 22
time step continuity errors : sum local = 9.38144e-09, global = 9.10101e-10, cumulative = 1.2994e-07
DICPCG:  Solving for p, Initial residual = 0.0030123, Final residual = 8.75572e-07, No Iterations 73
time step continuity errors : sum local = 1.86529e-11, global = 4.56703e-13, cumulative = 1.2994e-07
ExecutionTime = 0.27 s  ClockTime = 1 s

Time = 0.36

Courant Number mean: 0.0350475 max: 0.28673
smoothSolver:  Solving for Ux, Initial residual = 0.00148578, Final residual = 2.0004e-06, No Iterations 2
smoothSolver:  Solving for Uy, Initial residual = 0.00352675, Final residual = 3.4798e-06, No Iterations 2
DICPCG:  Solving for p, Initial residual = 0.00905249, Final residual = 0.00042703, No Iterations 22
time step continuity errors : sum local = 9.07287e-09, global = 8.57206e-10, cumulative = 1.30797e-07
DICPCG:  Solving for p, Initial residual = 0.00288219, Final residual = 8.28392e-07, No Iterations 73
time step continuity errors : sum local = 1.75909e-11, global = 4.48885e-13, cumulative = 1.30798e-07
ExecutionTime = 0.28 s  ClockTime = 1 s

Time = 0.37

Courant Number mean: 0.0350504 max: 0.285886
smoothSolver:  Solving for Ux, Initial residual = 0.00145033, Final residual = 1.92835e-06, No Iterations 2
smoothSolver:  Solving for Uy, Initial residual = 0.00346753, Final residual = 3.38851e-06, No Iterations 2
DICPCG:  Solving for p, Initial residual = 0.00878152, Final residual = 0.000419559, No Iterations 22
time step continuity errors : sum local = 8.887e-09, global = 8.20669e-10, cumulative = 1.31619e-07
DICPCG:  Solving for p, Initial residual = 0.00279377, Final residual = 8.2843e-07, No Iterations 73
time step continuity errors : sum local = 1.754e-11, global = 4.53296e-13, cumulative = 1.31619e-07
ExecutionTime = 0.29 s  ClockTime = 1 s

Time = 0.38

Courant Number mean: 0.0350533 max: 0.285069
smoothSolver:  Solving for Ux, Initial residual = 0.00141687, Final residual = 1.86026e-06, No Iterations 2
smoothSolver:  Solving for Uy, Initial residual = 0.00341169, Final residual = 3.3016e-06, No Iterations 2
DICPCG:  Solving for p, Initial residual = 0.00836279, Final residual = 0.000386583, No Iterations 22
time step continuity errors : sum local = 8.1651e-09, global = 7.71027e-10, cumulative = 1.3239e-07
DICPCG:  Solving for p, Initial residual = 0.00267143, Final residual = 8.0456e-07, No Iterations 73
time step continuity errors : sum local = 1.69863e-11, global = 4.53184e-13, cumulative = 1.32391e-07
ExecutionTime = 0.29 s  ClockTime = 1 s

Time = 0.39

Courant Number mean: 0.0350563 max: 0.28431
smoothSolver:  Solving for Ux, Initial residual = 0.00138526, Final residual = 1.79591e-06, No Iterations 2
smoothSolver:  Solving for Uy, Initial residual = 0.0033591, Final residual = 3.2178e-06, No Iterations 2
DICPCG:  Solving for p, Initial residual = 0.00819677, Final residual = 0.00037042, No Iterations 22
time step continuity errors : sum local = 7.80287e-09, global = 7.31147e-10, cumulative = 1.33122e-07
DICPCG:  Solving for p, Initial residual = 0.00259703, Final residual = 7.7299e-07, No Iterations 73
time step continuity errors : sum local = 1.62774e-11, global = 4.44434e-13, cumulative = 1.33122e-07
ExecutionTime = 0.3 s  ClockTime = 1 s

Time = 0.4

Courant Number mean: 0.0350594 max: 0.283633
smoothSolver:  Solving for Ux, Initial residual = 0.00135545, Final residual = 1.73503e-06, No Iterations 2
smoothSolver:  Solving for Uy, Initial residual = 0.00330824, Final residual = 3.13761e-06, No Iterations 2
DICPCG:  Solving for p, Initial residual = 0.00798838, Final residual = 0.000352755, No Iterations 22
time step continuity errors : sum local = 7.41196e-09, global = 6.99376e-10, cumulative = 1.33821e-07
DICPCG:  Solving for p, Initial residual = 0.00251107, Final residual = 7.57392e-07, No Iterations 73
time step continuity errors : sum local = 1.59087e-11, global = 4.41766e-13, cumulative = 1.33822e-07
ExecutionTime = 0.31 s  ClockTime = 1 s

Time = 0.41

Courant Number mean: 0.0350625 max: 0.282977
smoothSolver:  Solving for Ux, Initial residual = 0.00132729, Final residual = 1.67737e-06, No Iterations 2
smoothSolver:  Solving for Uy, Initial residual = 0.00325972, Final residual = 3.06082e-06, No Iterations 2
DICPCG:  Solving for p, Initial residual = 0.00785172, Final residual = 0.000345298, No Iterations 22
time step continuity errors : sum local = 7.23827e-09, global = 6.59481e-10, cumulative = 1.34481e-07
DICPCG:  Solving for p, Initial residual = 0.00244901, Final residual = 7.38968e-07, No Iterations 73
time step continuity errors : sum local = 1.5487e-11, global = 4.40148e-13, cumulative = 1.34482e-07
ExecutionTime = 0.31 s  ClockTime = 1 s

Time = 0.42

Courant Number mean: 0.0350656 max: 0.282449
smoothSolver:  Solving for Ux, Initial residual = 0.00130054, Final residual = 1.62275e-06, No Iterations 2
smoothSolver:  Solving for Uy, Initial residual = 0.00321285, Final residual = 2.98729e-06, No Iterations 2
DICPCG:  Solving for p, Initial residual = 0.00786495, Final residual = 0.000389608, No Iterations 21
time step continuity errors : sum local = 8.14921e-09, global = 6.19854e-10, cumulative = 1.35102e-07
DICPCG:  Solving for p, Initial residual = 0.00244335, Final residual = 7.4913e-07, No Iterations 73
time step continuity errors : sum local = 1.56649e-11, global = 4.95485e-13, cumulative = 1.35102e-07
ExecutionTime = 0.32 s  ClockTime = 1 s

Time = 0.43

Courant Number mean: 0.0350688 max: 0.281947
smoothSolver:  Solving for Ux, Initial residual = 0.00127507, Final residual = 1.57088e-06, No Iterations 2
smoothSolver:  Solving for Uy, Initial residual = 0.00316735, Final residual = 2.91642e-06, No Iterations 2
DICPCG:  Solving for p, Initial residual = 0.00748802, Final residual = 0.000366455, No Iterations 21
time step continuity errors : sum local = 7.64893e-09, global = 5.73292e-10, cumulative = 1.35675e-07
DICPCG:  Solving for p, Initial residual = 0.00232186, Final residual = 7.079e-07, No Iterations 73
time step continuity errors : sum local = 1.47733e-11, global = 4.80268e-13, cumulative = 1.35676e-07
ExecutionTime = 0.33 s  ClockTime = 1 s

Time = 0.44

Courant Number mean: 0.035072 max: 0.281455
smoothSolver:  Solving for Ux, Initial residual = 0.0012509, Final residual = 1.52154e-06, No Iterations 2
smoothSolver:  Solving for Uy, Initial residual = 0.00312381, Final residual = 2.84873e-06, No Iterations 2
DICPCG:  Solving for p, Initial residual = 0.00731748, Final residual = 0.000352179, No Iterations 21
time step continuity errors : sum local = 7.33706e-09, global = 5.54294e-10, cumulative = 1.3623e-07
DICPCG:  Solving for p, Initial residual = 0.00225561, Final residual = 6.78587e-07, No Iterations 73
time step continuity errors : sum local = 1.41355e-11, global = 4.70989e-13, cumulative = 1.36231e-07
ExecutionTime = 0.33 s  ClockTime = 1 s

Time = 0.45

Courant Number mean: 0.0350753 max: 0.280973
smoothSolver:  Solving for Ux, Initial residual = 0.00122789, Final residual = 1.47458e-06, No Iterations 2
smoothSolver:  Solving for Uy, Initial residual = 0.00308117, Final residual = 2.78339e-06, No Iterations 2
DICPCG:  Solving for p, Initial residual = 0.00719485, Final residual = 0.000332865, No Iterations 21
time step continuity errors : sum local = 6.92164e-09, global = 5.26123e-10, cumulative = 1.36757e-07
DICPCG:  Solving for p, Initial residual = 0.00218405, Final residual = 6.67362e-07, No Iterations 73
time step continuity errors : sum local = 1.38718e-11, global = 4.62469e-13, cumulative = 1.36757e-07
ExecutionTime = 0.34 s  ClockTime = 1 s

Time = 0.46

Courant Number mean: 0.0350786 max: 0.280499
smoothSolver:  Solving for Ux, Initial residual = 0.00120587, Final residual = 1.42982e-06, No Iterations 2
smoothSolver:  Solving for Uy, Initial residual = 0.0030405, Final residual = 2.72063e-06, No Iterations 2
DICPCG:  Solving for p, Initial residual = 0.0069808, Final residual = 0.000319392, No Iterations 21
time step continuity errors : sum local = 6.64475e-09, global = 5.08102e-10, cumulative = 1.37265e-07
DICPCG:  Solving for p, Initial residual = 0.00211885, Final residual = 6.41202e-07, No Iterations 73
time step continuity errors : sum local = 1.33358e-11, global = 4.59609e-13, cumulative = 1.37266e-07
ExecutionTime = 0.35 s  ClockTime = 1 s

Time = 0.47

Courant Number mean: 0.035082 max: 0.280037
smoothSolver:  Solving for Ux, Initial residual = 0.00118481, Final residual = 1.38713e-06, No Iterations 2
smoothSolver:  Solving for Uy, Initial residual = 0.00300105, Final residual = 2.65953e-06, No Iterations 2
DICPCG:  Solving for p, Initial residual = 0.00697621, Final residual = 0.000339872, No Iterations 20
time step continuity errors : sum local = 7.07562e-09, global = 4.60064e-10, cumulative = 1.37726e-07
DICPCG:  Solving for p, Initial residual = 0.002061, Final residual = 6.24346e-07, No Iterations 73
time step continuity errors : sum local = 1.29954e-11, global = 4.73949e-13, cumulative = 1.37726e-07
ExecutionTime = 0.35 s  ClockTime = 1 s

Time = 0.48

Courant Number mean: 0.0350854 max: 0.279646
smoothSolver:  Solving for Ux, Initial residual = 0.00116459, Final residual = 1.34635e-06, No Iterations 2
smoothSolver:  Solving for Uy, Initial residual = 0.00296294, Final residual = 2.60078e-06, No Iterations 2
DICPCG:  Solving for p, Initial residual = 0.00686697, Final residual = 0.000323998, No Iterations 20
time step continuity errors : sum local = 6.75066e-09, global = 4.42185e-10, cumulative = 1.38169e-07
DICPCG:  Solving for p, Initial residual = 0.00199477, Final residual = 6.19711e-07, No Iterations 73
time step continuity errors : sum local = 1.291e-11, global = 4.72068e-13, cumulative = 1.38169e-07
ExecutionTime = 0.36 s  ClockTime = 1 s

Time = 0.49

Courant Number mean: 0.0350889 max: 0.279262
smoothSolver:  Solving for Ux, Initial residual = 0.0011452, Final residual = 1.30734e-06, No Iterations 2
smoothSolver:  Solving for Uy, Initial residual = 0.00292661, Final residual = 2.54377e-06, No Iterations 2
DICPCG:  Solving for p, Initial residual = 0.00718754, Final residual = 0.000327122, No Iterations 19
time step continuity errors : sum local = 6.82179e-09, global = 4.13557e-10, cumulative = 1.38583e-07
DICPCG:  Solving for p, Initial residual = 0.00201712, Final residual = 6.38469e-07, No Iterations 73
time step continuity errors : sum local = 1.33128e-11, global = 4.50406e-13, cumulative = 1.38583e-07
ExecutionTime = 0.37 s  ClockTime = 1 s

Time = 0.5

Courant Number mean: 0.0350924 max: 0.278884
smoothSolver:  Solving for Ux, Initial residual = 0.00112657, Final residual = 1.27008e-06, No Iterations 2
smoothSolver:  Solving for Uy, Initial residual = 0.00289044, Final residual = 2.48853e-06, No Iterations 2
DICPCG:  Solving for p, Initial residual = 0.00660186, Final residual = 0.000298627, No Iterations 20
time step continuity errors : sum local = 6.23279e-09, global = 4.06324e-10, cumulative = 1.38989e-07
DICPCG:  Solving for p, Initial residual = 0.00191094, Final residual = 5.76786e-07, No Iterations 73
time step continuity errors : sum local = 1.20366e-11, global = 4.37443e-13, cumulative = 1.3899e-07
ExecutionTime = 0.38 s  ClockTime = 1 s

Time = 0.51

Courant Number mean: 0.0350959 max: 0.278513
smoothSolver:  Solving for Ux, Initial residual = 0.00110887, Final residual = 1.23434e-06, No Iterations 2
smoothSolver:  Solving for Uy, Initial residual = 0.00285579, Final residual = 2.4358e-06, No Iterations 2
DICPCG:  Solving for p, Initial residual = 0.00642375, Final residual = 0.00031034, No Iterations 19
time step continuity errors : sum local = 6.48255e-09, global = 3.78965e-10, cumulative = 1.39369e-07
DICPCG:  Solving for p, Initial residual = 0.00185832, Final residual = 5.80692e-07, No Iterations 73
time step continuity errors : sum local = 1.21283e-11, global = 4.42558e-13, cumulative = 1.39369e-07
ExecutionTime = 0.39 s  ClockTime = 1 s

Time = 0.52

Courant Number mean: 0.0350994 max: 0.278148
smoothSolver:  Solving for Ux, Initial residual = 0.00109192, Final residual = 1.2001e-06, No Iterations 2
smoothSolver:  Solving for Uy, Initial residual = 0.00282235, Final residual = 2.38447e-06, No Iterations 2
DICPCG:  Solving for p, Initial residual = 0.00598939, Final residual = 0.000270276, No Iterations 20
time step continuity errors : sum local = 5.65024e-09, global = 3.85493e-10, cumulative = 1.39755e-07
DICPCG:  Solving for p, Initial residual = 0.00178062, Final residual = 5.56308e-07, No Iterations 73
time step continuity errors : sum local = 1.16285e-11, global = 4.58756e-13, cumulative = 1.39755e-07
ExecutionTime = 0.4 s  ClockTime = 1 s

Time = 0.53

Courant Number mean: 0.0351029 max: 0.277789
smoothSolver:  Solving for Ux, Initial residual = 0.00107565, Final residual = 1.1672e-06, No Iterations 2
smoothSolver:  Solving for Uy, Initial residual = 0.00278969, Final residual = 2.33478e-06, No Iterations 2
DICPCG:  Solving for p, Initial residual = 0.00608115, Final residual = 0.000292997, No Iterations 19
time step continuity errors : sum local = 6.1294e-09, global = 3.53959e-10, cumulative = 1.40109e-07
DICPCG:  Solving for p, Initial residual = 0.00176812, Final residual = 9.89224e-07, No Iterations 72
time step continuity errors : sum local = 2.06902e-11, global = 6.65535e-13, cumulative = 1.4011e-07
ExecutionTime = 0.4 s  ClockTime = 1 s

Time = 0.54

Courant Number mean: 0.0351066 max: 0.277437
smoothSolver:  Solving for Ux, Initial residual = 0.00105999, Final residual = 1.13558e-06, No Iterations 2
smoothSolver:  Solving for Uy, Initial residual = 0.00275785, Final residual = 2.2868e-06, No Iterations 2
DICPCG:  Solving for p, Initial residual = 0.00607594, Final residual = 0.000299807, No Iterations 19
time step continuity errors : sum local = 6.27483e-09, global = 3.3516e-10, cumulative = 1.40445e-07
DICPCG:  Solving for p, Initial residual = 0.00174442, Final residual = 9.8137e-07, No Iterations 72
time step continuity errors : sum local = 2.05332e-11, global = 6.54742e-13, cumulative = 1.40446e-07
ExecutionTime = 0.41 s  ClockTime = 1 s

Time = 0.55

Courant Number mean: 0.0351102 max: 0.277091
smoothSolver:  Solving for Ux, Initial residual = 0.00104494, Final residual = 1.10527e-06, No Iterations 2
smoothSolver:  Solving for Uy, Initial residual = 0.002727, Final residual = 2.24076e-06, No Iterations 2
DICPCG:  Solving for p, Initial residual = 0.00558327, Final residual = 0.000274033, No Iterations 19
time step continuity errors : sum local = 5.73845e-09, global = 3.2762e-10, cumulative = 1.40773e-07
DICPCG:  Solving for p, Initial residual = 0.00165999, Final residual = 9.33387e-07, No Iterations 72
time step continuity errors : sum local = 1.95433e-11, global = 6.37967e-13, cumulative = 1.40774e-07
ExecutionTime = 0.42 s  ClockTime = 1 s

Time = 0.56

Courant Number mean: 0.0351139 max: 0.276752
smoothSolver:  Solving for Ux, Initial residual = 0.00103045, Final residual = 1.07619e-06, No Iterations 2
smoothSolver:  Solving for Uy, Initial residual = 0.00269708, Final residual = 2.19565e-06, No Iterations 2
DICPCG:  Solving for p, Initial residual = 0.00548596, Final residual = 0.000271031, No Iterations 19
time step continuity errors : sum local = 5.67945e-09, global = 3.18145e-10, cumulative = 1.41092e-07
DICPCG:  Solving for p, Initial residual = 0.00162821, Final residual = 8.98683e-07, No Iterations 72
time step continuity errors : sum local = 1.88299e-11, global = 6.16721e-13, cumulative = 1.41093e-07
ExecutionTime = 0.42 s  ClockTime = 1 s

Time = 0.57

Courant Number mean: 0.0351176 max: 0.276419
smoothSolver:  Solving for Ux, Initial residual = 0.00101653, Final residual = 1.0482e-06, No Iterations 2
smoothSolver:  Solving for Uy, Initial residual = 0.0026679, Final residual = 2.15184e-06, No Iterations 2
DICPCG:  Solving for p, Initial residual = 0.00537855, Final residual = 0.000257233, No Iterations 19
time step continuity errors : sum local = 5.3939e-09, global = 3.07891e-10, cumulative = 1.41401e-07
DICPCG:  Solving for p, Initial residual = 0.00157792, Final residual = 8.63741e-07, No Iterations 72
time step continuity errors : sum local = 1.81094e-11, global = 6.02711e-13, cumulative = 1.41401e-07
ExecutionTime = 0.43 s  ClockTime = 1 s

Time = 0.58

Courant Number mean: 0.0351213 max: 0.276092
smoothSolver:  Solving for Ux, Initial residual = 0.00100305, Final residual = 1.02124e-06, No Iterations 2
smoothSolver:  Solving for Uy, Initial residual = 0.00264005, Final residual = 2.10942e-06, No Iterations 2
DICPCG:  Solving for p, Initial residual = 0.00528992, Final residual = 0.000257475, No Iterations 19
time step continuity errors : sum local = 5.40243e-09, global = 3.00726e-10, cumulative = 1.41702e-07
DICPCG:  Solving for p, Initial residual = 0.00154727, Final residual = 8.71905e-07, No Iterations 72
time step continuity errors : sum local = 1.82928e-11, global = 6.01109e-13, cumulative = 1.41702e-07
ExecutionTime = 0.44 s  ClockTime = 1 s

Time = 0.59

Courant Number mean: 0.035125 max: 0.275772
smoothSolver:  Solving for Ux, Initial residual = 0.000990085, Final residual = 9.95318e-07, No Iterations 2
smoothSolver:  Solving for Uy, Initial residual = 0.00261291, Final residual = 2.06811e-06, No Iterations 2
DICPCG:  Solving for p, Initial residual = 0.00522374, Final residual = 0.000245642, No Iterations 19
time step continuity errors : sum local = 5.15756e-09, global = 2.89168e-10, cumulative = 1.41992e-07
DICPCG:  Solving for p, Initial residual = 0.00150288, Final residual = 8.67683e-07, No Iterations 72
time step continuity errors : sum local = 1.82165e-11, global = 5.92935e-13, cumulative = 1.41992e-07
ExecutionTime = 0.44 s  ClockTime = 1 s

Time = 0.6

Courant Number mean: 0.0351287 max: 0.275458
smoothSolver:  Solving for Ux, Initial residual = 0.000977584, Final residual = 9.70338e-07, No Iterations 2
smoothSolver:  Solving for Uy, Initial residual = 0.00258665, Final residual = 2.02814e-06, No Iterations 2
DICPCG:  Solving for p, Initial residual = 0.00514762, Final residual = 0.000244344, No Iterations 19
time step continuity errors : sum local = 5.13393e-09, global = 2.83377e-10, cumulative = 1.42276e-07
DICPCG:  Solving for p, Initial residual = 0.00147268, Final residual = 8.42658e-07, No Iterations 72
time step continuity errors : sum local = 1.77048e-11, global = 5.80999e-13, cumulative = 1.42276e-07
ExecutionTime = 0.45 s  ClockTime = 1 s

Time = 0.61

Courant Number mean: 0.0351324 max: 0.275151
smoothSolver:  Solving for Ux, Initial residual = 0.000965599, Final residual = 9.46261e-07, No Iterations 2
smoothSolver:  Solving for Uy, Initial residual = 0.00256171, Final residual = 1.98932e-06, No Iterations 2
DICPCG:  Solving for p, Initial residual = 0.00517089, Final residual = 0.000236539, No Iterations 19
time step continuity errors : sum local = 4.97373e-09, global = 2.77828e-10, cumulative = 1.42554e-07
DICPCG:  Solving for p, Initial residual = 0.00144145, Final residual = 8.18907e-07, No Iterations 72
time step continuity errors : sum local = 1.7219e-11, global = 5.59963e-13, cumulative = 1.42555e-07
ExecutionTime = 0.45 s  ClockTime = 1 s

Time = 0.62

Courant Number mean: 0.0351362 max: 0.274851
smoothSolver:  Solving for Ux, Initial residual = 0.00095404, Final residual = 9.23036e-07, No Iterations 2
smoothSolver:  Solving for Uy, Initial residual = 0.00253863, Final residual = 1.95156e-06, No Iterations 2
DICPCG:  Solving for p, Initial residual = 0.00527656, Final residual = 0.000262206, No Iterations 18
time step continuity errors : sum local = 5.5184e-09, global = 2.34548e-10, cumulative = 1.42789e-07
DICPCG:  Solving for p, Initial residual = 0.00144044, Final residual = 8.33121e-07, No Iterations 72
time step continuity errors : sum local = 1.75366e-11, global = 5.67996e-13, cumulative = 1.4279e-07
ExecutionTime = 0.46 s  ClockTime = 1 s

Time = 0.63

Courant Number mean: 0.0351399 max: 0.274557
smoothSolver:  Solving for Ux, Initial residual = 0.000942819, Final residual = 9.00561e-07, No Iterations 2
smoothSolver:  Solving for Uy, Initial residual = 0.00251716, Final residual = 1.91483e-06, No Iterations 2
DICPCG:  Solving for p, Initial residual = 0.00521636, Final residual = 0.000250452, No Iterations 18
time step continuity errors : sum local = 5.27459e-09, global = 2.40444e-10, cumulative = 1.4303e-07
DICPCG:  Solving for p, Initial residual = 0.00139569, Final residual = 8.0661e-07, No Iterations 72
time step continuity errors : sum local = 1.69844e-11, global = 5.48612e-13, cumulative = 1.43031e-07
ExecutionTime = 0.47 s  ClockTime = 1 s

Time = 0.64

Courant Number mean: 0.0351436 max: 0.27427
smoothSolver:  Solving for Ux, Initial residual = 0.000932049, Final residual = 8.78864e-07, No Iterations 2
smoothSolver:  Solving for Uy, Initial residual = 0.00249568, Final residual = 1.87878e-06, No Iterations 2
DICPCG:  Solving for p, Initial residual = 0.00515459, Final residual = 0.000252, No Iterations 18
time step continuity errors : sum local = 5.3088e-09, global = 2.29514e-10, cumulative = 1.4326e-07
DICPCG:  Solving for p, Initial residual = 0.00139584, Final residual = 7.86418e-07, No Iterations 72
time step continuity errors : sum local = 1.65638e-11, global = 5.40605e-13, cumulative = 1.43261e-07
ExecutionTime = 0.47 s  ClockTime = 1 s

Time = 0.65

Courant Number mean: 0.0351474 max: 0.27399
smoothSolver:  Solving for Ux, Initial residual = 0.000921583, Final residual = 8.57957e-07, No Iterations 2
smoothSolver:  Solving for Uy, Initial residual = 0.00247427, Final residual = 1.84373e-06, No Iterations 2
DICPCG:  Solving for p, Initial residual = 0.00512778, Final residual = 0.000253539, No Iterations 18
time step continuity errors : sum local = 5.34335e-09, global = 2.22259e-10, cumulative = 1.43483e-07
DICPCG:  Solving for p, Initial residual = 0.0013678, Final residual = 7.97369e-07, No Iterations 72
time step continuity errors : sum local = 1.68039e-11, global = 5.27259e-13, cumulative = 1.43484e-07
ExecutionTime = 0.48 s  ClockTime = 1 s

Time = 0.66

Courant Number mean: 0.0351512 max: 0.273716
smoothSolver:  Solving for Ux, Initial residual = 0.000911532, Final residual = 8.37742e-07, No Iterations 2
smoothSolver:  Solving for Uy, Initial residual = 0.00245328, Final residual = 1.80977e-06, No Iterations 2
DICPCG:  Solving for p, Initial residual = 0.00497792, Final residual = 0.000223932, No Iterations 19
time step continuity errors : sum local = 4.72109e-09, global = 2.49311e-10, cumulative = 1.43733e-07
DICPCG:  Solving for p, Initial residual = 0.00131428, Final residual = 7.84977e-07, No Iterations 72
time step continuity errors : sum local = 1.65451e-11, global = 5.191e-13, cumulative = 1.43733e-07
ExecutionTime = 0.49 s  ClockTime = 1 s

Time = 0.67

Courant Number mean: 0.035155 max: 0.273448
smoothSolver:  Solving for Ux, Initial residual = 0.000901796, Final residual = 8.182e-07, No Iterations 2
smoothSolver:  Solving for Uy, Initial residual = 0.00243253, Final residual = 1.77665e-06, No Iterations 2
DICPCG:  Solving for p, Initial residual = 0.00486968, Final residual = 0.000242629, No Iterations 18
time step continuity errors : sum local = 5.11571e-09, global = 2.18138e-10, cumulative = 1.43952e-07
DICPCG:  Solving for p, Initial residual = 0.0013125, Final residual = 7.89217e-07, No Iterations 72
time step continuity errors : sum local = 1.66352e-11, global = 5.05411e-13, cumulative = 1.43952e-07
ExecutionTime = 0.5 s  ClockTime = 1 s

Time = 0.68

Courant Number mean: 0.0351588 max: 0.273187
smoothSolver:  Solving for Ux, Initial residual = 0.000892297, Final residual = 7.99323e-07, No Iterations 2
smoothSolver:  Solving for Uy, Initial residual = 0.00241188, Final residual = 1.74431e-06, No Iterations 2
DICPCG:  Solving for p, Initial residual = 0.00454447, Final residual = 0.00021302, No Iterations 19
time step continuity errors : sum local = 4.4925e-09, global = 2.27295e-10, cumulative = 1.44179e-07
DICPCG:  Solving for p, Initial residual = 0.00124804, Final residual = 7.53796e-07, No Iterations 72
time step continuity errors : sum local = 1.58959e-11, global = 5.20898e-13, cumulative = 1.4418e-07
ExecutionTime = 0.51 s  ClockTime = 1 s

Time = 0.69

Courant Number mean: 0.0351627 max: 0.272933
smoothSolver:  Solving for Ux, Initial residual = 0.000883066, Final residual = 7.80996e-07, No Iterations 2
smoothSolver:  Solving for Uy, Initial residual = 0.00239177, Final residual = 1.71286e-06, No Iterations 2
DICPCG:  Solving for p, Initial residual = 0.00464675, Final residual = 0.000211612, No Iterations 19
time step continuity errors : sum local = 4.46435e-09, global = 2.20498e-10, cumulative = 1.444e-07
DICPCG:  Solving for p, Initial residual = 0.00123133, Final residual = 7.51799e-07, No Iterations 72
time step continuity errors : sum local = 1.5858e-11, global = 5.14923e-13, cumulative = 1.44401e-07
ExecutionTime = 0.52 s  ClockTime = 1 s

Time = 0.7

Courant Number mean: 0.0351666 max: 0.272685
smoothSolver:  Solving for Ux, Initial residual = 0.000874064, Final residual = 7.63244e-07, No Iterations 2
smoothSolver:  Solving for Uy, Initial residual = 0.00237174, Final residual = 1.6821e-06, No Iterations 2
DICPCG:  Solving for p, Initial residual = 0.00437478, Final residual = 0.000205065, No Iterations 19
time step continuity errors : sum local = 4.32809e-09, global = 2.17724e-10, cumulative = 1.44619e-07
DICPCG:  Solving for p, Initial residual = 0.00119031, Final residual = 7.46923e-07, No Iterations 72
time step continuity errors : sum local = 1.57647e-11, global = 5.09474e-13, cumulative = 1.44619e-07
ExecutionTime = 0.52 s  ClockTime = 1 s

Time = 0.71

Courant Number mean: 0.0351705 max: 0.272444
smoothSolver:  Solving for Ux, Initial residual = 0.000865309, Final residual = 7.46084e-07, No Iterations 2
smoothSolver:  Solving for Uy, Initial residual = 0.00235205, Final residual = 1.65212e-06, No Iterations 2
DICPCG:  Solving for p, Initial residual = 0.0045583, Final residual = 0.000209325, No Iterations 19
time step continuity errors : sum local = 4.41901e-09, global = 2.1547e-10, cumulative = 1.44835e-07
DICPCG:  Solving for p, Initial residual = 0.00119582, Final residual = 7.4564e-07, No Iterations 72
time step continuity errors : sum local = 1.57355e-11, global = 4.98817e-13, cumulative = 1.44835e-07
ExecutionTime = 0.53 s  ClockTime = 1 s

Time = 0.72

Courant Number mean: 0.0351744 max: 0.272208
smoothSolver:  Solving for Ux, Initial residual = 0.000856845, Final residual = 7.29462e-07, No Iterations 2
smoothSolver:  Solving for Uy, Initial residual = 0.00233295, Final residual = 1.62287e-06, No Iterations 2
DICPCG:  Solving for p, Initial residual = 0.00416266, Final residual = 0.000196331, No Iterations 19
time step continuity errors : sum local = 4.14497e-09, global = 2.07992e-10, cumulative = 1.45043e-07
DICPCG:  Solving for p, Initial residual = 0.00114478, Final residual = 7.33147e-07, No Iterations 72
time step continuity errors : sum local = 1.5476e-11, global = 4.94632e-13, cumulative = 1.45044e-07
ExecutionTime = 0.54 s  ClockTime = 1 s

Time = 0.73

Courant Number mean: 0.0351782 max: 0.27198
smoothSolver:  Solving for Ux, Initial residual = 0.000848588, Final residual = 7.13353e-07, No Iterations 2
smoothSolver:  Solving for Uy, Initial residual = 0.00231459, Final residual = 1.59448e-06, No Iterations 2
DICPCG:  Solving for p, Initial residual = 0.00406201, Final residual = 0.000198676, No Iterations 19
time step continuity errors : sum local = 4.19586e-09, global = 2.05608e-10, cumulative = 1.45249e-07
DICPCG:  Solving for p, Initial residual = 0.00112533, Final residual = 7.02498e-07, No Iterations 72
time step continuity errors : sum local = 1.48349e-11, global = 4.84639e-13, cumulative = 1.4525e-07
ExecutionTime = 0.55 s  ClockTime = 1 s

Time = 0.74

Courant Number mean: 0.0351821 max: 0.271757
smoothSolver:  Solving for Ux, Initial residual = 0.000840546, Final residual = 6.97721e-07, No Iterations 2
smoothSolver:  Solving for Uy, Initial residual = 0.00229655, Final residual = 1.5667e-06, No Iterations 2
DICPCG:  Solving for p, Initial residual = 0.00414174, Final residual = 0.000199342, No Iterations 19
time step continuity errors : sum local = 4.21135e-09, global = 2.00929e-10, cumulative = 1.45451e-07
DICPCG:  Solving for p, Initial residual = 0.00111664, Final residual = 6.93072e-07, No Iterations 72
time step continuity errors : sum local = 1.46405e-11, global = 4.83762e-13, cumulative = 1.45451e-07
ExecutionTime = 0.55 s  ClockTime = 2 s

Time = 0.75

Courant Number mean: 0.0351859 max: 0.271541
smoothSolver:  Solving for Ux, Initial residual = 0.000832732, Final residual = 6.82553e-07, No Iterations 2
smoothSolver:  Solving for Uy, Initial residual = 0.00227868, Final residual = 1.53936e-06, No Iterations 2
DICPCG:  Solving for p, Initial residual = 0.00404983, Final residual = 0.00019852, No Iterations 19
time step continuity errors : sum local = 4.19496e-09, global = 1.96779e-10, cumulative = 1.45648e-07
DICPCG:  Solving for p, Initial residual = 0.0010891, Final residual = 6.6873e-07, No Iterations 72
time step continuity errors : sum local = 1.41287e-11, global = 4.53446e-13, cumulative = 1.45648e-07
ExecutionTime = 0.59 s  ClockTime = 2 s

Time = 0.76

Courant Number mean: 0.0351899 max: 0.271331
smoothSolver:  Solving for Ux, Initial residual = 0.0008251, Final residual = 6.67908e-07, No Iterations 2
smoothSolver:  Solving for Uy, Initial residual = 0.00226148, Final residual = 1.51305e-06, No Iterations 2
DICPCG:  Solving for p, Initial residual = 0.00388742, Final residual = 0.000191166, No Iterations 19
time step continuity errors : sum local = 4.04057e-09, global = 1.94545e-10, cumulative = 1.45843e-07
DICPCG:  Solving for p, Initial residual = 0.00105493, Final residual = 9.71156e-07, No Iterations 71
time step continuity errors : sum local = 2.0525e-11, global = 5.1059e-13, cumulative = 1.45843e-07
ExecutionTime = 0.61 s  ClockTime = 2 s

Time = 0.77

Courant Number mean: 0.0351938 max: 0.271126
smoothSolver:  Solving for Ux, Initial residual = 0.000817658, Final residual = 6.53761e-07, No Iterations 2
smoothSolver:  Solving for Uy, Initial residual = 0.00224519, Final residual = 1.48708e-06, No Iterations 2
DICPCG:  Solving for p, Initial residual = 0.00385918, Final residual = 0.000189597, No Iterations 19
time step continuity errors : sum local = 4.0086e-09, global = 1.90378e-10, cumulative = 1.46034e-07
DICPCG:  Solving for p, Initial residual = 0.00103989, Final residual = 9.51389e-07, No Iterations 71
time step continuity errors : sum local = 2.01131e-11, global = 4.88456e-13, cumulative = 1.46034e-07
ExecutionTime = 0.62 s  ClockTime = 2 s

Time = 0.78

Courant Number mean: 0.0351977 max: 0.270928
smoothSolver:  Solving for Ux, Initial residual = 0.000810407, Final residual = 6.39995e-07, No Iterations 2
smoothSolver:  Solving for Uy, Initial residual = 0.00222959, Final residual = 1.46171e-06, No Iterations 2
DICPCG:  Solving for p, Initial residual = 0.00382831, Final residual = 0.000188473, No Iterations 19
time step continuity errors : sum local = 3.98606e-09, global = 1.86548e-10, cumulative = 1.46221e-07
DICPCG:  Solving for p, Initial residual = 0.0010339, Final residual = 9.2942e-07, No Iterations 71
time step continuity errors : sum local = 1.96554e-11, global = 4.67221e-13, cumulative = 1.46221e-07
ExecutionTime = 0.63 s  ClockTime = 2 s

Time = 0.79

Courant Number mean: 0.0352016 max: 0.270735
smoothSolver:  Solving for Ux, Initial residual = 0.000803347, Final residual = 6.26547e-07, No Iterations 2
smoothSolver:  Solving for Uy, Initial residual = 0.00221412, Final residual = 1.43693e-06, No Iterations 2
DICPCG:  Solving for p, Initial residual = 0.00382431, Final residual = 0.000188386, No Iterations 19
time step continuity errors : sum local = 3.98523e-09, global = 1.81702e-10, cumulative = 1.46403e-07
DICPCG:  Solving for p, Initial residual = 0.00102035, Final residual = 8.62296e-07, No Iterations 71
time step continuity errors : sum local = 1.8239e-11, global = 4.2034e-13, cumulative = 1.46403e-07
ExecutionTime = 0.64 s  ClockTime = 2 s

Time = 0.8

Courant Number mean: 0.0352055 max: 0.270548
smoothSolver:  Solving for Ux, Initial residual = 0.000796472, Final residual = 6.13465e-07, No Iterations 2
smoothSolver:  Solving for Uy, Initial residual = 0.00219901, Final residual = 1.41287e-06, No Iterations 2
DICPCG:  Solving for p, Initial residual = 0.00393194, Final residual = 0.000187564, No Iterations 19
time step continuity errors : sum local = 3.96825e-09, global = 1.80628e-10, cumulative = 1.46584e-07
DICPCG:  Solving for p, Initial residual = 0.0010149, Final residual = 8.13719e-07, No Iterations 71
time step continuity errors : sum local = 1.72121e-11, global = 3.70572e-13, cumulative = 1.46584e-07
ExecutionTime = 0.65 s  ClockTime = 2 s

Time = 0.81

Courant Number mean: 0.0352094 max: 0.270367
smoothSolver:  Solving for Ux, Initial residual = 0.000789745, Final residual = 6.0077e-07, No Iterations 2
smoothSolver:  Solving for Uy, Initial residual = 0.00218387, Final residual = 1.38917e-06, No Iterations 2
DICPCG:  Solving for p, Initial residual = 0.00387484, Final residual = 0.000189632, No Iterations 19
time step continuity errors : sum local = 4.01286e-09, global = 1.81252e-10, cumulative = 1.46766e-07
DICPCG:  Solving for p, Initial residual = 0.000999994, Final residual = 8.7215e-07, No Iterations 71
time step continuity errors : sum local = 1.84553e-11, global = 4.37287e-13, cumulative = 1.46766e-07
ExecutionTime = 0.65 s  ClockTime = 2 s

Time = 0.82

Courant Number mean: 0.0352133 max: 0.270192
smoothSolver:  Solving for Ux, Initial residual = 0.000783229, Final residual = 5.88577e-07, No Iterations 2
smoothSolver:  Solving for Uy, Initial residual = 0.00216862, Final residual = 1.36641e-06, No Iterations 2
DICPCG:  Solving for p, Initial residual = 0.00396051, Final residual = 0.000192827, No Iterations 19
time step continuity errors : sum local = 4.08258e-09, global = 1.77316e-10, cumulative = 1.46943e-07
DICPCG:  Solving for p, Initial residual = 0.00100989, Final residual = 8.5714e-07, No Iterations 71
time step continuity errors : sum local = 1.81496e-11, global = 4.14895e-13, cumulative = 1.46944e-07
ExecutionTime = 0.66 s  ClockTime = 2 s

Time = 0.83

Courant Number mean: 0.0352172 max: 0.270022
smoothSolver:  Solving for Ux, Initial residual = 0.000776895, Final residual = 5.76746e-07, No Iterations 2
smoothSolver:  Solving for Uy, Initial residual = 0.00215347, Final residual = 1.34416e-06, No Iterations 2
DICPCG:  Solving for p, Initial residual = 0.00372359, Final residual = 0.000182404, No Iterations 19
time step continuity errors : sum local = 3.8639e-09, global = 1.69892e-10, cumulative = 1.47114e-07
DICPCG:  Solving for p, Initial residual = 0.000956027, Final residual = 9.38702e-07, No Iterations 70
time step continuity errors : sum local = 1.98844e-11, global = 2.3188e-13, cumulative = 1.47114e-07
ExecutionTime = 0.67 s  ClockTime = 2 s

Time = 0.84

Courant Number mean: 0.0352212 max: 0.269857
smoothSolver:  Solving for Ux, Initial residual = 0.000770731, Final residual = 5.65249e-07, No Iterations 2
smoothSolver:  Solving for Uy, Initial residual = 0.00213873, Final residual = 1.32211e-06, No Iterations 2
DICPCG:  Solving for p, Initial residual = 0.0038798, Final residual = 0.000186261, No Iterations 19
time step continuity errors : sum local = 3.9478e-09, global = 1.65447e-10, cumulative = 1.47279e-07
DICPCG:  Solving for p, Initial residual = 0.0009601, Final residual = 9.29131e-07, No Iterations 68
time step continuity errors : sum local = 1.96962e-11, global = -3.8477e-13, cumulative = 1.47279e-07
ExecutionTime = 0.67 s  ClockTime = 2 s

Time = 0.85

Courant Number mean: 0.0352251 max: 0.269697
smoothSolver:  Solving for Ux, Initial residual = 0.000764717, Final residual = 5.54031e-07, No Iterations 2
smoothSolver:  Solving for Uy, Initial residual = 0.00212441, Final residual = 1.30063e-06, No Iterations 2
DICPCG:  Solving for p, Initial residual = 0.003903, Final residual = 0.000195139, No Iterations 18
time step continuity errors : sum local = 4.13664e-09, global = 1.66544e-10, cumulative = 1.47445e-07
DICPCG:  Solving for p, Initial residual = 0.000969055, Final residual = 7.45914e-07, No Iterations 71
time step continuity errors : sum local = 1.58061e-11, global = 2.99282e-13, cumulative = 1.47446e-07
ExecutionTime = 0.68 s  ClockTime = 2 s

Time = 0.86

Courant Number mean: 0.035229 max: 0.269542
smoothSolver:  Solving for Ux, Initial residual = 0.000758793, Final residual = 5.43133e-07, No Iterations 2
smoothSolver:  Solving for Uy, Initial residual = 0.00211005, Final residual = 1.27939e-06, No Iterations 2
DICPCG:  Solving for p, Initial residual = 0.00381197, Final residual = 0.000172657, No Iterations 19
time step continuity errors : sum local = 3.66034e-09, global = 1.69297e-10, cumulative = 1.47615e-07
DICPCG:  Solving for p, Initial residual = 0.000936147, Final residual = 9.84279e-07, No Iterations 69
time step continuity errors : sum local = 2.08678e-11, global = -3.58598e-14, cumulative = 1.47615e-07
ExecutionTime = 0.68 s  ClockTime = 2 s

Time = 0.87

Courant Number mean: 0.035233 max: 0.269393
smoothSolver:  Solving for Ux, Initial residual = 0.000753041, Final residual = 5.3254e-07, No Iterations 2
smoothSolver:  Solving for Uy, Initial residual = 0.0020961, Final residual = 1.25868e-06, No Iterations 2
DICPCG:  Solving for p, Initial residual = 0.00393746, Final residual = 0.000190762, No Iterations 18
time step continuity errors : sum local = 4.04471e-09, global = 1.61528e-10, cumulative = 1.47777e-07
DICPCG:  Solving for p, Initial residual = 0.000947675, Final residual = 9.89403e-07, No Iterations 70
time step continuity errors : sum local = 2.09716e-11, global = 2.29882e-13, cumulative = 1.47777e-07
ExecutionTime = 0.69 s  ClockTime = 2 s

Time = 0.88

Courant Number mean: 0.0352369 max: 0.269248
smoothSolver:  Solving for Ux, Initial residual = 0.000747561, Final residual = 5.22279e-07, No Iterations 2
smoothSolver:  Solving for Uy, Initial residual = 0.00208201, Final residual = 1.23812e-06, No Iterations 2
DICPCG:  Solving for p, Initial residual = 0.00389967, Final residual = 0.000184669, No Iterations 18
time step continuity errors : sum local = 3.9164e-09, global = 1.63466e-10, cumulative = 1.4794e-07
DICPCG:  Solving for p, Initial residual = 0.000928114, Final residual = 7.72238e-07, No Iterations 71
time step continuity errors : sum local = 1.63799e-11, global = 3.30214e-13, cumulative = 1.47941e-07
ExecutionTime = 0.7 s  ClockTime = 2 s

Time = 0.89

Courant Number mean: 0.0352409 max: 0.269108
smoothSolver:  Solving for Ux, Initial residual = 0.000742327, Final residual = 5.12304e-07, No Iterations 2
smoothSolver:  Solving for Uy, Initial residual = 0.00206796, Final residual = 1.21802e-06, No Iterations 2
DICPCG:  Solving for p, Initial residual = 0.00363006, Final residual = 0.000170441, No Iterations 19
time step continuity errors : sum local = 3.61588e-09, global = 1.56112e-10, cumulative = 1.48097e-07
DICPCG:  Solving for p, Initial residual = 0.000901143, Final residual = 8.73369e-07, No Iterations 67
time step continuity errors : sum local = 1.85249e-11, global = -4.18097e-13, cumulative = 1.48096e-07
ExecutionTime = 0.7 s  ClockTime = 2 s

Time = 0.9

Courant Number mean: 0.0352448 max: 0.268973
smoothSolver:  Solving for Ux, Initial residual = 0.000737091, Final residual = 5.02548e-07, No Iterations 2
smoothSolver:  Solving for Uy, Initial residual = 0.00205499, Final residual = 1.19894e-06, No Iterations 2
DICPCG:  Solving for p, Initial residual = 0.00362253, Final residual = 0.000166266, No Iterations 19
time step continuity errors : sum local = 3.52751e-09, global = 1.55309e-10, cumulative = 1.48252e-07
DICPCG:  Solving for p, Initial residual = 0.000877168, Final residual = 8.9353e-07, No Iterations 67
time step continuity errors : sum local = 1.89552e-11, global = -5.36274e-13, cumulative = 1.48251e-07
ExecutionTime = 0.71 s  ClockTime = 2 s

Time = 0.91

Courant Number mean: 0.0352488 max: 0.268842
smoothSolver:  Solving for Ux, Initial residual = 0.000732067, Final residual = 9.96569e-06, No Iterations 1
smoothSolver:  Solving for Uy, Initial residual = 0.00204237, Final residual = 1.18019e-06, No Iterations 2
DICPCG:  Solving for p, Initial residual = 0.00412561, Final residual = 0.000194135, No Iterations 22
time step continuity errors : sum local = 4.11994e-09, global = 6.59378e-10, cumulative = 1.4891e-07
DICPCG:  Solving for p, Initial residual = 0.00132345, Final residual = 8.63179e-07, No Iterations 71
time step continuity errors : sum local = 1.83189e-11, global = -2.88266e-13, cumulative = 1.4891e-07
ExecutionTime = 0.72 s  ClockTime = 2 s

Time = 0.92

Courant Number mean: 0.0352527 max: 0.268716
smoothSolver:  Solving for Ux, Initial residual = 0.000726724, Final residual = 9.82743e-06, No Iterations 1
smoothSolver:  Solving for Uy, Initial residual = 0.00202884, Final residual = 1.16243e-06, No Iterations 2
DICPCG:  Solving for p, Initial residual = 0.00419532, Final residual = 0.000186012, No Iterations 20
time step continuity errors : sum local = 3.94968e-09, global = 4.58813e-10, cumulative = 1.49369e-07
DICPCG:  Solving for p, Initial residual = 0.00129268, Final residual = 7.2589e-07, No Iterations 72
time step continuity errors : sum local = 1.54148e-11, global = -2.4182e-13, cumulative = 1.49369e-07
ExecutionTime = 0.72 s  ClockTime = 2 s

Time = 0.93

Courant Number mean: 0.0352567 max: 0.268594
smoothSolver:  Solving for Ux, Initial residual = 0.000722137, Final residual = 9.68092e-06, No Iterations 1
smoothSolver:  Solving for Uy, Initial residual = 0.00201665, Final residual = 1.14339e-06, No Iterations 2
DICPCG:  Solving for p, Initial residual = 0.0037175, Final residual = 0.000184413, No Iterations 20
time step continuity errors : sum local = 3.91701e-09, global = 4.60401e-10, cumulative = 1.49829e-07
DICPCG:  Solving for p, Initial residual = 0.00125204, Final residual = 9.81193e-07, No Iterations 71
time step continuity errors : sum local = 2.08419e-11, global = -1.61614e-13, cumulative = 1.49829e-07
ExecutionTime = 0.73 s  ClockTime = 2 s

Time = 0.94

Courant Number mean: 0.0352607 max: 0.268477
smoothSolver:  Solving for Ux, Initial residual = 0.000717558, Final residual = 9.53819e-06, No Iterations 1
smoothSolver:  Solving for Uy, Initial residual = 0.00200473, Final residual = 1.12513e-06, No Iterations 2
DICPCG:  Solving for p, Initial residual = 0.00330817, Final residual = 0.00016292, No Iterations 22
time step continuity errors : sum local = 3.46063e-09, global = 5.25451e-10, cumulative = 1.50354e-07
DICPCG:  Solving for p, Initial residual = 0.00122755, Final residual = 9.20771e-07, No Iterations 71
time step continuity errors : sum local = 1.95548e-11, global = -6.31621e-14, cumulative = 1.50354e-07
ExecutionTime = 0.73 s  ClockTime = 2 s

Time = 0.95

Courant Number mean: 0.0352647 max: 0.268363
smoothSolver:  Solving for Ux, Initial residual = 0.000713005, Final residual = 9.39766e-06, No Iterations 1
smoothSolver:  Solving for Uy, Initial residual = 0.00199362, Final residual = 1.10761e-06, No Iterations 2
DICPCG:  Solving for p, Initial residual = 0.00314741, Final residual = 0.000126531, No Iterations 23
time step continuity errors : sum local = 2.68761e-09, global = 5.65081e-10, cumulative = 1.50919e-07
DICPCG:  Solving for p, Initial residual = 0.00118714, Final residual = 8.67486e-07, No Iterations 71
time step continuity errors : sum local = 1.84254e-11, global = -3.65117e-14, cumulative = 1.50919e-07
ExecutionTime = 0.74 s  ClockTime = 2 s

Time = 0.96

Courant Number mean: 0.0352687 max: 0.268254
smoothSolver:  Solving for Ux, Initial residual = 0.000708521, Final residual = 9.26073e-06, No Iterations 1
smoothSolver:  Solving for Uy, Initial residual = 0.00198306, Final residual = 1.09054e-06, No Iterations 2
DICPCG:  Solving for p, Initial residual = 0.00325351, Final residual = 0.000161332, No Iterations 22
time step continuity errors : sum local = 3.42688e-09, global = 5.09943e-10, cumulative = 1.51429e-07
DICPCG:  Solving for p, Initial residual = 0.00119979, Final residual = 9.21851e-07, No Iterations 71
time step continuity errors : sum local = 1.95784e-11, global = -7.23233e-14, cumulative = 1.51429e-07
ExecutionTime = 0.75 s  ClockTime = 2 s

Time = 0.97

Courant Number mean: 0.0352727 max: 0.268148
smoothSolver:  Solving for Ux, Initial residual = 0.000704116, Final residual = 9.12693e-06, No Iterations 1
smoothSolver:  Solving for Uy, Initial residual = 0.00197281, Final residual = 1.07381e-06, No Iterations 2
DICPCG:  Solving for p, Initial residual = 0.0031956, Final residual = 0.00012409, No Iterations 23
time step continuity errors : sum local = 2.63583e-09, global = 5.48524e-10, cumulative = 1.51978e-07
DICPCG:  Solving for p, Initial residual = 0.00116077, Final residual = 8.1051e-07, No Iterations 71
time step continuity errors : sum local = 1.72156e-11, global = -1.82025e-14, cumulative = 1.51978e-07
ExecutionTime = 0.75 s  ClockTime = 2 s

Time = 0.98

Courant Number mean: 0.0352767 max: 0.268046
smoothSolver:  Solving for Ux, Initial residual = 0.000699852, Final residual = 8.99628e-06, No Iterations 1
smoothSolver:  Solving for Uy, Initial residual = 0.00196316, Final residual = 1.05764e-06, No Iterations 2
DICPCG:  Solving for p, Initial residual = 0.0030217, Final residual = 0.000149083, No Iterations 22
time step continuity errors : sum local = 3.16725e-09, global = 4.99177e-10, cumulative = 1.52477e-07
DICPCG:  Solving for p, Initial residual = 0.00114218, Final residual = 8.19564e-07, No Iterations 71
time step continuity errors : sum local = 1.74116e-11, global = -4.36542e-14, cumulative = 1.52477e-07
ExecutionTime = 0.76 s  ClockTime = 2 s

Time = 0.99

Courant Number mean: 0.0352806 max: 0.267949
smoothSolver:  Solving for Ux, Initial residual = 0.000695643, Final residual = 8.86903e-06, No Iterations 1
smoothSolver:  Solving for Uy, Initial residual = 0.00195382, Final residual = 1.04168e-06, No Iterations 2
DICPCG:  Solving for p, Initial residual = 0.00304138, Final residual = 0.0001483, No Iterations 22
time step continuity errors : sum local = 3.15133e-09, global = 4.90753e-10, cumulative = 1.52968e-07
DICPCG:  Solving for p, Initial residual = 0.00112601, Final residual = 8.34064e-07, No Iterations 71
time step continuity errors : sum local = 1.77244e-11, global = -4.18555e-14, cumulative = 1.52968e-07
ExecutionTime = 0.78 s  ClockTime = 2 s

Time = 1

Courant Number mean: 0.0352845 max: 0.267854
smoothSolver:  Solving for Ux, Initial residual = 0.000691505, Final residual = 8.7451e-06, No Iterations 1
smoothSolver:  Solving for Uy, Initial residual = 0.00194454, Final residual = 1.02594e-06, No Iterations 2
DICPCG:  Solving for p, Initial residual = 0.00296934, Final residual = 0.000147607, No Iterations 22
time step continuity errors : sum local = 3.13733e-09, global = 4.81876e-10, cumulative = 1.53449e-07
DICPCG:  Solving for p, Initial residual = 0.00111207, Final residual = 8.40366e-07, No Iterations 71
time step continuity errors : sum local = 1.78621e-11, global = -4.1964e-14, cumulative = 1.53449e-07
ExecutionTime = 0.81 s  ClockTime = 2 s

Time = 1.01

Courant Number mean: 0.0352885 max: 0.267763
smoothSolver:  Solving for Ux, Initial residual = 0.000687433, Final residual = 8.62304e-06, No Iterations 1
smoothSolver:  Solving for Uy, Initial residual = 0.00193527, Final residual = 1.01055e-06, No Iterations 2
DICPCG:  Solving for p, Initial residual = 0.00302882, Final residual = 0.000149718, No Iterations 22
time step continuity errors : sum local = 3.18266e-09, global = 4.74045e-10, cumulative = 1.53923e-07
DICPCG:  Solving for p, Initial residual = 0.00109895, Final residual = 8.30251e-07, No Iterations 71
time step continuity errors : sum local = 1.76485e-11, global = -3.68191e-14, cumulative = 1.53923e-07
ExecutionTime = 0.82 s  ClockTime = 2 s

Time = 1.02

Courant Number mean: 0.0352925 max: 0.267711
smoothSolver:  Solving for Ux, Initial residual = 0.000683436, Final residual = 8.50381e-06, No Iterations 1
smoothSolver:  Solving for Uy, Initial residual = 0.001926, Final residual = 9.95415e-07, No Iterations 2
DICPCG:  Solving for p, Initial residual = 0.00305644, Final residual = 0.00014616, No Iterations 22
time step continuity errors : sum local = 3.10725e-09, global = 4.67047e-10, cumulative = 1.5439e-07
DICPCG:  Solving for p, Initial residual = 0.00108514, Final residual = 7.98048e-07, No Iterations 71
time step continuity errors : sum local = 1.69652e-11, global = -2.33175e-14, cumulative = 1.5439e-07
ExecutionTime = 0.83 s  ClockTime = 2 s

Time = 1.03

Courant Number mean: 0.0352964 max: 0.267662
smoothSolver:  Solving for Ux, Initial residual = 0.00067953, Final residual = 8.38725e-06, No Iterations 1
smoothSolver:  Solving for Uy, Initial residual = 0.00191688, Final residual = 9.80771e-07, No Iterations 2
DICPCG:  Solving for p, Initial residual = 0.00309593, Final residual = 0.000144924, No Iterations 22
time step continuity errors : sum local = 3.08144e-09, global = 4.5803e-10, cumulative = 1.54849e-07
DICPCG:  Solving for p, Initial residual = 0.00106644, Final residual = 7.87893e-07, No Iterations 71
time step continuity errors : sum local = 1.6753e-11, global = -2.56552e-14, cumulative = 1.54848e-07
ExecutionTime = 0.84 s  ClockTime = 2 s

Time = 1.04

Courant Number mean: 0.0353004 max: 0.267616
smoothSolver:  Solving for Ux, Initial residual = 0.000675689, Final residual = 8.27311e-06, No Iterations 1
smoothSolver:  Solving for Uy, Initial residual = 0.00190786, Final residual = 9.66467e-07, No Iterations 2
DICPCG:  Solving for p, Initial residual = 0.00305887, Final residual = 0.000141659, No Iterations 22
time step continuity errors : sum local = 3.01302e-09, global = 4.49812e-10, cumulative = 1.55298e-07
DICPCG:  Solving for p, Initial residual = 0.00105743, Final residual = 7.72703e-07, No Iterations 71
time step continuity errors : sum local = 1.64375e-11, global = -2.8759e-14, cumulative = 1.55298e-07
ExecutionTime = 0.84 s  ClockTime = 2 s

Time = 1.05

Courant Number mean: 0.0353043 max: 0.267573
smoothSolver:  Solving for Ux, Initial residual = 0.000671905, Final residual = 8.16138e-06, No Iterations 1
smoothSolver:  Solving for Uy, Initial residual = 0.00189918, Final residual = 9.52309e-07, No Iterations 2
DICPCG:  Solving for p, Initial residual = 0.00305189, Final residual = 0.000151971, No Iterations 21
time step continuity errors : sum local = 3.23279e-09, global = 4.12591e-10, cumulative = 1.55711e-07
DICPCG:  Solving for p, Initial residual = 0.00105388, Final residual = 8.3296e-07, No Iterations 71
time step continuity errors : sum local = 1.77163e-11, global = -1.05286e-13, cumulative = 1.55711e-07
ExecutionTime = 0.85 s  ClockTime = 2 s

Time = 1.06

Courant Number mean: 0.0353082 max: 0.267533
smoothSolver:  Solving for Ux, Initial residual = 0.00066819, Final residual = 8.05287e-06, No Iterations 1
smoothSolver:  Solving for Uy, Initial residual = 0.00189029, Final residual = 9.38177e-07, No Iterations 2
DICPCG:  Solving for p, Initial residual = 0.003036, Final residual = 0.000139549, No Iterations 22
time step continuity errors : sum local = 2.9682e-09, global = 4.58628e-10, cumulative = 1.56169e-07
DICPCG:  Solving for p, Initial residual = 0.00104523, Final residual = 8.07448e-07, No Iterations 71
time step continuity errors : sum local = 1.71724e-11, global = -4.87624e-14, cumulative = 1.56169e-07
ExecutionTime = 0.85 s  ClockTime = 2 s

Time = 1.07

Courant Number mean: 0.0353122 max: 0.267494
smoothSolver:  Solving for Ux, Initial residual = 0.000664523, Final residual = 7.94619e-06, No Iterations 1
smoothSolver:  Solving for Uy, Initial residual = 0.00188127, Final residual = 9.24409e-07, No Iterations 2
DICPCG:  Solving for p, Initial residual = 0.00295774, Final residual = 0.0001358, No Iterations 22
time step continuity errors : sum local = 2.88811e-09, global = 4.44103e-10, cumulative = 1.56613e-07
DICPCG:  Solving for p, Initial residual = 0.00101252, Final residual = 7.51775e-07, No Iterations 71
time step continuity errors : sum local = 1.59857e-11, global = -2.74116e-14, cumulative = 1.56613e-07
ExecutionTime = 0.86 s  ClockTime = 2 s

Time = 1.08

Courant Number mean: 0.0353161 max: 0.267458
smoothSolver:  Solving for Ux, Initial residual = 0.000660923, Final residual = 7.84179e-06, No Iterations 1
smoothSolver:  Solving for Uy, Initial residual = 0.00187248, Final residual = 9.10853e-07, No Iterations 2
DICPCG:  Solving for p, Initial residual = 0.00301908, Final residual = 0.000132687, No Iterations 22
time step continuity errors : sum local = 2.82124e-09, global = 4.39905e-10, cumulative = 1.57053e-07
DICPCG:  Solving for p, Initial residual = 0.00100473, Final residual = 7.33034e-07, No Iterations 71
time step continuity errors : sum local = 1.55826e-11, global = -1.44639e-14, cumulative = 1.57053e-07
ExecutionTime = 0.87 s  ClockTime = 2 s

Time = 1.09

Courant Number mean: 0.0353201 max: 0.267424
smoothSolver:  Solving for Ux, Initial residual = 0.000657389, Final residual = 7.7394e-06, No Iterations 1
smoothSolver:  Solving for Uy, Initial residual = 0.00186376, Final residual = 8.97619e-07, No Iterations 2
DICPCG:  Solving for p, Initial residual = 0.0028729, Final residual = 0.00013574, No Iterations 22
time step continuity errors : sum local = 2.88587e-09, global = 4.26631e-10, cumulative = 1.5748e-07
DICPCG:  Solving for p, Initial residual = 0.00097776, Final residual = 9.89871e-07, No Iterations 70
time step continuity errors : sum local = 2.10444e-11, global = -3.3333e-14, cumulative = 1.5748e-07
ExecutionTime = 0.87 s  ClockTime = 2 s

Time = 1.1

[...]
time step continuity errors : sum local = 2.11067e-10, global = 1.46363e-11, cumulative = 2.90143e-07
DICPCG:  Solving for p, Initial residual = 3.74116e-05, Final residual = 9.42291e-07, No Iterations 21
time step continuity errors : sum local = 1.9059e-11, global = 4.62109e-12, cumulative = 2.90148e-07
ExecutionTime = 15.1 s  ClockTime = 34 s

Time = 24.74

Courant Number mean: 0.0356418 max: 0.283987
smoothSolver:  Solving for Ux, Initial residual = 5.79096e-05, Final residual = 1.00294e-07, No Iterations 1
smoothSolver:  Solving for Uy, Initial residual = 0.000465852, Final residual = 1.63698e-06, No Iterations 1
DICPCG:  Solving for p, Initial residual = 0.000288931, Final residual = 1.36599e-05, No Iterations 4
time step continuity errors : sum local = 2.76303e-10, global = 1.14597e-11, cumulative = 2.90159e-07
DICPCG:  Solving for p, Initial residual = 3.92334e-05, Final residual = 8.6135e-07, No Iterations 44
time step continuity errors : sum local = 1.74236e-11, global = -1.01107e-12, cumulative = 2.90158e-07
ExecutionTime = 15.1 s  ClockTime = 34 s

Time = 24.75

Courant Number mean: 0.0356417 max: 0.283987
smoothSolver:  Solving for Ux, Initial residual = 5.78216e-05, Final residual = 9.99242e-08, No Iterations 1
smoothSolver:  Solving for Uy, Initial residual = 0.000465438, Final residual = 1.63753e-06, No Iterations 1
DICPCG:  Solving for p, Initial residual = 0.00027269, Final residual = 1.28886e-05, No Iterations 4
time step continuity errors : sum local = 2.60712e-10, global = 1.47883e-11, cumulative = 2.90173e-07
DICPCG:  Solving for p, Initial residual = 4.07314e-05, Final residual = 8.28097e-07, No Iterations 20
time step continuity errors : sum local = 1.67503e-11, global = -3.07571e-12, cumulative = 2.9017e-07
ExecutionTime = 15.11 s  ClockTime = 34 s

Time = 24.76

Courant Number mean: 0.0356416 max: 0.283988
smoothSolver:  Solving for Ux, Initial residual = 5.77593e-05, Final residual = 9.9615e-08, No Iterations 1
smoothSolver:  Solving for Uy, Initial residual = 0.000465102, Final residual = 1.63748e-06, No Iterations 1
DICPCG:  Solving for p, Initial residual = 0.00017472, Final residual = 8.03459e-06, No Iterations 5
time step continuity errors : sum local = 1.62522e-10, global = 3.16002e-12, cumulative = 2.90173e-07
DICPCG:  Solving for p, Initial residual = 3.36098e-05, Final residual = 9.9545e-07, No Iterations 17
time step continuity errors : sum local = 2.0136e-11, global = -3.69579e-12, cumulative = 2.9017e-07
ExecutionTime = 15.12 s  ClockTime = 34 s

Time = 24.77

Courant Number mean: 0.0356414 max: 0.283988
smoothSolver:  Solving for Ux, Initial residual = 5.76792e-05, Final residual = 9.92674e-08, No Iterations 1
smoothSolver:  Solving for Uy, Initial residual = 0.000464807, Final residual = 1.63794e-06, No Iterations 1
DICPCG:  Solving for p, Initial residual = 0.000189875, Final residual = 7.5316e-06, No Iterations 5
time step continuity errors : sum local = 1.52352e-10, global = 4.6778e-12, cumulative = 2.90174e-07
DICPCG:  Solving for p, Initial residual = 3.37002e-05, Final residual = 8.86679e-07, No Iterations 16
time step continuity errors : sum local = 1.79363e-11, global = -1.98566e-12, cumulative = 2.90172e-07
ExecutionTime = 15.13 s  ClockTime = 34 s

Time = 24.78

Courant Number mean: 0.0356412 max: 0.283988
smoothSolver:  Solving for Ux, Initial residual = 5.75938e-05, Final residual = 9.89189e-08, No Iterations 1
smoothSolver:  Solving for Uy, Initial residual = 0.000464516, Final residual = 1.63838e-06, No Iterations 1
DICPCG:  Solving for p, Initial residual = 0.000190438, Final residual = 7.41687e-06, No Iterations 5
time step continuity errors : sum local = 1.50035e-10, global = 1.1601e-11, cumulative = 2.90184e-07
DICPCG:  Solving for p, Initial residual = 3.35292e-05, Final residual = 9.87658e-07, No Iterations 16
time step continuity errors : sum local = 1.99793e-11, global = 1.46741e-12, cumulative = 2.90185e-07
ExecutionTime = 15.13 s  ClockTime = 34 s

Time = 24.79

Courant Number mean: 0.0356411 max: 0.283989
smoothSolver:  Solving for Ux, Initial residual = 5.75081e-05, Final residual = 9.85688e-08, No Iterations 1
smoothSolver:  Solving for Uy, Initial residual = 0.00046422, Final residual = 1.63908e-06, No Iterations 1
DICPCG:  Solving for p, Initial residual = 0.000269734, Final residual = 1.04599e-05, No Iterations 4
time step continuity errors : sum local = 2.11595e-10, global = 2.1835e-11, cumulative = 2.90207e-07
DICPCG:  Solving for p, Initial residual = 3.61634e-05, Final residual = 9.20937e-07, No Iterations 44
time step continuity errors : sum local = 1.86299e-11, global = -2.77995e-13, cumulative = 2.90207e-07
ExecutionTime = 15.14 s  ClockTime = 34 s

Time = 24.8

Courant Number mean: 0.0356409 max: 0.283989
smoothSolver:  Solving for Ux, Initial residual = 5.74227e-05, Final residual = 9.82169e-08, No Iterations 1
smoothSolver:  Solving for Uy, Initial residual = 0.000463883, Final residual = 1.63972e-06, No Iterations 1
DICPCG:  Solving for p, Initial residual = 0.000236234, Final residual = 1.05894e-05, No Iterations 4
time step continuity errors : sum local = 2.14225e-10, global = 4.00915e-12, cumulative = 2.90211e-07
DICPCG:  Solving for p, Initial residual = 3.6251e-05, Final residual = 9.08381e-07, No Iterations 16
time step continuity errors : sum local = 1.83772e-11, global = -2.26789e-13, cumulative = 2.90211e-07
ExecutionTime = 15.14 s  ClockTime = 34 s

Time = 24.81

Courant Number mean: 0.0356408 max: 0.283989
smoothSolver:  Solving for Ux, Initial residual = 5.73334e-05, Final residual = 9.78812e-08, No Iterations 1
smoothSolver:  Solving for Uy, Initial residual = 0.000463636, Final residual = 1.64043e-06, No Iterations 1
DICPCG:  Solving for p, Initial residual = 0.000210889, Final residual = 7.09234e-06, No Iterations 5
time step continuity errors : sum local = 1.43488e-10, global = 8.21779e-12, cumulative = 2.90219e-07
DICPCG:  Solving for p, Initial residual = 3.39351e-05, Final residual = 9.74356e-07, No Iterations 16
time step continuity errors : sum local = 1.97134e-11, global = 2.40688e-12, cumulative = 2.90221e-07
ExecutionTime = 15.15 s  ClockTime = 34 s

Time = 24.82

Courant Number mean: 0.0356406 max: 0.28399
smoothSolver:  Solving for Ux, Initial residual = 5.72429e-05, Final residual = 9.75441e-08, No Iterations 1
smoothSolver:  Solving for Uy, Initial residual = 0.00046344, Final residual = 1.64112e-06, No Iterations 1
DICPCG:  Solving for p, Initial residual = 0.000191465, Final residual = 7.20163e-06, No Iterations 5
time step continuity errors : sum local = 1.45711e-10, global = 1.34393e-11, cumulative = 2.90235e-07
DICPCG:  Solving for p, Initial residual = 3.3846e-05, Final residual = 9.05587e-07, No Iterations 42
time step continuity errors : sum local = 1.83236e-11, global = -5.74345e-15, cumulative = 2.90235e-07
ExecutionTime = 15.15 s  ClockTime = 34 s

Time = 24.83

Courant Number mean: 0.0356404 max: 0.28399
smoothSolver:  Solving for Ux, Initial residual = 5.71487e-05, Final residual = 9.72073e-08, No Iterations 1
smoothSolver:  Solving for Uy, Initial residual = 0.000463251, Final residual = 1.64172e-06, No Iterations 1
DICPCG:  Solving for p, Initial residual = 0.000228997, Final residual = 7.60086e-06, No Iterations 5
time step continuity errors : sum local = 1.53807e-10, global = 7.41721e-12, cumulative = 2.90242e-07
DICPCG:  Solving for p, Initial residual = 3.49051e-05, Final residual = 8.96612e-07, No Iterations 16
time step continuity errors : sum local = 1.81444e-11, global = -7.91362e-13, cumulative = 2.90241e-07
ExecutionTime = 15.16 s  ClockTime = 34 s

Time = 24.84

Courant Number mean: 0.0356402 max: 0.28399
smoothSolver:  Solving for Ux, Initial residual = 5.70533e-05, Final residual = 9.68718e-08, No Iterations 1
smoothSolver:  Solving for Uy, Initial residual = 0.000463046, Final residual = 1.64257e-06, No Iterations 1
DICPCG:  Solving for p, Initial residual = 0.000279388, Final residual = 1.36786e-05, No Iterations 4
time step continuity errors : sum local = 2.76838e-10, global = 9.41292e-12, cumulative = 2.90251e-07
DICPCG:  Solving for p, Initial residual = 4.1304e-05, Final residual = 9.29255e-07, No Iterations 16
time step continuity errors : sum local = 1.88089e-11, global = 1.60727e-12, cumulative = 2.90252e-07
ExecutionTime = 15.16 s  ClockTime = 34 s

Time = 24.85

Courant Number mean: 0.03564 max: 0.283991
smoothSolver:  Solving for Ux, Initial residual = 5.69627e-05, Final residual = 9.65589e-08, No Iterations 1
smoothSolver:  Solving for Uy, Initial residual = 0.000462821, Final residual = 1.6431e-06, No Iterations 1
DICPCG:  Solving for p, Initial residual = 0.000275533, Final residual = 1.17501e-05, No Iterations 4
time step continuity errors : sum local = 2.37853e-10, global = 1.37492e-11, cumulative = 2.90266e-07
DICPCG:  Solving for p, Initial residual = 3.92756e-05, Final residual = 9.48464e-07, No Iterations 22
time step continuity errors : sum local = 1.92009e-11, global = 5.63645e-12, cumulative = 2.90272e-07
ExecutionTime = 15.17 s  ClockTime = 34 s

Time = 24.86

Courant Number mean: 0.0356398 max: 0.283991
smoothSolver:  Solving for Ux, Initial residual = 5.68641e-05, Final residual = 9.62162e-08, No Iterations 1
smoothSolver:  Solving for Uy, Initial residual = 0.00046262, Final residual = 1.64385e-06, No Iterations 1
DICPCG:  Solving for p, Initial residual = 0.000257855, Final residual = 8.76746e-06, No Iterations 5
time step continuity errors : sum local = 1.7748e-10, global = 1.57067e-11, cumulative = 2.90287e-07
DICPCG:  Solving for p, Initial residual = 3.85239e-05, Final residual = 8.51215e-07, No Iterations 45
time step continuity errors : sum local = 1.72302e-11, global = -3.63608e-13, cumulative = 2.90287e-07
ExecutionTime = 15.17 s  ClockTime = 34 s

Time = 24.87

Courant Number mean: 0.0356396 max: 0.283991
smoothSolver:  Solving for Ux, Initial residual = 5.67386e-05, Final residual = 9.57634e-08, No Iterations 1
smoothSolver:  Solving for Uy, Initial residual = 0.00046242, Final residual = 1.64491e-06, No Iterations 1
DICPCG:  Solving for p, Initial residual = 0.000347515, Final residual = 1.27771e-05, No Iterations 5
time step continuity errors : sum local = 2.58604e-10, global = -1.33965e-12, cumulative = 2.90286e-07
DICPCG:  Solving for p, Initial residual = 4.53076e-05, Final residual = 9.20379e-07, No Iterations 19
time step continuity errors : sum local = 1.86257e-11, global = -4.00357e-12, cumulative = 2.90282e-07
ExecutionTime = 15.18 s  ClockTime = 34 s

Time = 24.88

Courant Number mean: 0.0356395 max: 0.283992
smoothSolver:  Solving for Ux, Initial residual = 5.66047e-05, Final residual = 9.52697e-08, No Iterations 1
smoothSolver:  Solving for Uy, Initial residual = 0.000462263, Final residual = 1.6464e-06, No Iterations 1
DICPCG:  Solving for p, Initial residual = 0.000180666, Final residual = 8.30268e-06, No Iterations 5
time step continuity errors : sum local = 1.68028e-10, global = 3.15893e-12, cumulative = 2.90285e-07
DICPCG:  Solving for p, Initial residual = 3.31999e-05, Final residual = 9.45325e-07, No Iterations 20
time step continuity errors : sum local = 1.9132e-11, global = -4.06656e-12, cumulative = 2.90281e-07
ExecutionTime = 15.18 s  ClockTime = 34 s

Time = 24.89

Courant Number mean: 0.0356393 max: 0.283992
smoothSolver:  Solving for Ux, Initial residual = 5.65007e-05, Final residual = 9.48915e-08, No Iterations 1
smoothSolver:  Solving for Uy, Initial residual = 0.000462039, Final residual = 1.6467e-06, No Iterations 1
DICPCG:  Solving for p, Initial residual = 0.000293424, Final residual = 9.85855e-06, No Iterations 5
time step continuity errors : sum local = 1.99555e-10, global = 5.62817e-13, cumulative = 2.90281e-07
DICPCG:  Solving for p, Initial residual = 3.96459e-05, Final residual = 9.7813e-07, No Iterations 12
time step continuity errors : sum local = 1.98023e-11, global = -3.33505e-12, cumulative = 2.90278e-07
ExecutionTime = 15.18 s  ClockTime = 34 s

Time = 24.9

Courant Number mean: 0.0356391 max: 0.283992
smoothSolver:  Solving for Ux, Initial residual = 5.63776e-05, Final residual = 9.44564e-08, No Iterations 1
smoothSolver:  Solving for Uy, Initial residual = 0.000461834, Final residual = 1.64731e-06, No Iterations 1
DICPCG:  Solving for p, Initial residual = 0.00031367, Final residual = 1.21711e-05, No Iterations 5
time step continuity errors : sum local = 2.46375e-10, global = 7.51078e-12, cumulative = 2.90286e-07
DICPCG:  Solving for p, Initial residual = 4.336e-05, Final residual = 9.54289e-07, No Iterations 18
time step continuity errors : sum local = 1.93151e-11, global = 2.67915e-13, cumulative = 2.90286e-07
ExecutionTime = 15.19 s  ClockTime = 34 s

Time = 24.91

Courant Number mean: 0.0356389 max: 0.283993
smoothSolver:  Solving for Ux, Initial residual = 5.62895e-05, Final residual = 9.42036e-08, No Iterations 1
smoothSolver:  Solving for Uy, Initial residual = 0.000461669, Final residual = 1.64726e-06, No Iterations 1
DICPCG:  Solving for p, Initial residual = 0.000166575, Final residual = 7.67367e-06, No Iterations 5
time step continuity errors : sum local = 1.55324e-10, global = 1.3785e-11, cumulative = 2.903e-07
DICPCG:  Solving for p, Initial residual = 3.31606e-05, Final residual = 9.80024e-07, No Iterations 41
time step continuity errors : sum local = 1.98374e-11, global = 4.06256e-13, cumulative = 2.903e-07
ExecutionTime = 15.19 s  ClockTime = 34 s

Time = 24.92

Courant Number mean: 0.0356386 max: 0.283993
smoothSolver:  Solving for Ux, Initial residual = 5.61759e-05, Final residual = 9.38717e-08, No Iterations 1
smoothSolver:  Solving for Uy, Initial residual = 0.0004615, Final residual = 1.64724e-06, No Iterations 1
DICPCG:  Solving for p, Initial residual = 0.000167159, Final residual = 7.88299e-06, No Iterations 5
time step continuity errors : sum local = 1.59573e-10, global = 9.04219e-12, cumulative = 2.90309e-07
DICPCG:  Solving for p, Initial residual = 3.32519e-05, Final residual = 9.14487e-07, No Iterations 17
time step continuity errors : sum local = 1.85124e-11, global = 9.55938e-13, cumulative = 2.9031e-07
ExecutionTime = 15.2 s  ClockTime = 34 s

Time = 24.93

Courant Number mean: 0.0356384 max: 0.283993
smoothSolver:  Solving for Ux, Initial residual = 5.60597e-05, Final residual = 9.35565e-08, No Iterations 1
smoothSolver:  Solving for Uy, Initial residual = 0.000461331, Final residual = 1.64737e-06, No Iterations 1
DICPCG:  Solving for p, Initial residual = 0.000172639, Final residual = 7.54775e-06, No Iterations 5
time step continuity errors : sum local = 1.52799e-10, global = 1.22836e-11, cumulative = 2.90322e-07
DICPCG:  Solving for p, Initial residual = 3.3163e-05, Final residual = 9.61937e-07, No Iterations 20
time step continuity errors : sum local = 1.94746e-11, global = 4.80429e-12, cumulative = 2.90327e-07
ExecutionTime = 15.2 s  ClockTime = 34 s

Time = 24.94

Courant Number mean: 0.0356381 max: 0.283994
smoothSolver:  Solving for Ux, Initial residual = 5.59423e-05, Final residual = 9.32931e-08, No Iterations 1
smoothSolver:  Solving for Uy, Initial residual = 0.000461137, Final residual = 1.64732e-06, No Iterations 1
DICPCG:  Solving for p, Initial residual = 0.0002209, Final residual = 7.36363e-06, No Iterations 5
time step continuity errors : sum local = 1.49085e-10, global = 1.45643e-11, cumulative = 2.90342e-07
DICPCG:  Solving for p, Initial residual = 3.48399e-05, Final residual = 9.12184e-07, No Iterations 40
time step continuity errors : sum local = 1.84691e-11, global = 2.21114e-13, cumulative = 2.90342e-07
ExecutionTime = 15.2 s  ClockTime = 34 s

Time = 24.95

Courant Number mean: 0.0356379 max: 0.283994
smoothSolver:  Solving for Ux, Initial residual = 5.58295e-05, Final residual = 9.30934e-08, No Iterations 1
smoothSolver:  Solving for Uy, Initial residual = 0.000460932, Final residual = 1.64716e-06, No Iterations 1
DICPCG:  Solving for p, Initial residual = 0.000296057, Final residual = 1.2899e-05, No Iterations 4
time step continuity errors : sum local = 2.61194e-10, global = 1.48975e-11, cumulative = 2.90357e-07
DICPCG:  Solving for p, Initial residual = 3.99984e-05, Final residual = 9.71209e-07, No Iterations 17
time step continuity errors : sum local = 1.96675e-11, global = -3.01682e-12, cumulative = 2.90354e-07
ExecutionTime = 15.21 s  ClockTime = 34 s

Time = 24.96

Courant Number mean: 0.0356377 max: 0.283995
smoothSolver:  Solving for Ux, Initial residual = 5.57312e-05, Final residual = 9.29233e-08, No Iterations 1
smoothSolver:  Solving for Uy, Initial residual = 0.000460687, Final residual = 1.64649e-06, No Iterations 1
DICPCG:  Solving for p, Initial residual = 0.000262119, Final residual = 1.30043e-05, No Iterations 4
time step continuity errors : sum local = 2.6335e-10, global = 1.67286e-12, cumulative = 2.90355e-07
DICPCG:  Solving for p, Initial residual = 3.8603e-05, Final residual = 9.84936e-07, No Iterations 17
time step continuity errors : sum local = 1.99465e-11, global = -2.96184e-12, cumulative = 2.90352e-07
ExecutionTime = 15.21 s  ClockTime = 34 s

Time = 24.97

Courant Number mean: 0.0356374 max: 0.283995
smoothSolver:  Solving for Ux, Initial residual = 5.56099e-05, Final residual = 9.27389e-08, No Iterations 1
smoothSolver:  Solving for Uy, Initial residual = 0.000460524, Final residual = 1.64653e-06, No Iterations 1
DICPCG:  Solving for p, Initial residual = 0.000192828, Final residual = 7.10382e-06, No Iterations 5
time step continuity errors : sum local = 1.43863e-10, global = 7.54958e-12, cumulative = 2.9036e-07
DICPCG:  Solving for p, Initial residual = 3.40506e-05, Final residual = 9.37571e-07, No Iterations 16
time step continuity errors : sum local = 1.89872e-11, global = -4.36299e-13, cumulative = 2.9036e-07
ExecutionTime = 15.22 s  ClockTime = 34 s

Time = 24.98

Courant Number mean: 0.0356372 max: 0.283995
smoothSolver:  Solving for Ux, Initial residual = 5.54988e-05, Final residual = 9.25761e-08, No Iterations 1
smoothSolver:  Solving for Uy, Initial residual = 0.000460282, Final residual = 1.64616e-06, No Iterations 1
DICPCG:  Solving for p, Initial residual = 0.000181603, Final residual = 6.5469e-06, No Iterations 5
time step continuity errors : sum local = 1.32583e-10, global = 1.1898e-11, cumulative = 2.90371e-07
DICPCG:  Solving for p, Initial residual = 3.36207e-05, Final residual = 9.82359e-07, No Iterations 17
time step continuity errors : sum local = 1.98936e-11, global = 4.24883e-12, cumulative = 2.90376e-07
ExecutionTime = 15.22 s  ClockTime = 34 s

Time = 24.99

Courant Number mean: 0.0356369 max: 0.283996
smoothSolver:  Solving for Ux, Initial residual = 5.53892e-05, Final residual = 9.2454e-08, No Iterations 1
smoothSolver:  Solving for Uy, Initial residual = 0.000459991, Final residual = 1.6458e-06, No Iterations 1
DICPCG:  Solving for p, Initial residual = 0.000218034, Final residual = 7.14399e-06, No Iterations 5
time step continuity errors : sum local = 1.44664e-10, global = 1.80875e-11, cumulative = 2.90394e-07
DICPCG:  Solving for p, Initial residual = 3.52654e-05, Final residual = 9.21241e-07, No Iterations 44
time step continuity errors : sum local = 1.86539e-11, global = -2.77286e-13, cumulative = 2.90394e-07
ExecutionTime = 15.23 s  ClockTime = 34 s

Time = 25

Courant Number mean: 0.0356366 max: 0.283996
smoothSolver:  Solving for Ux, Initial residual = 5.52777e-05, Final residual = 9.23279e-08, No Iterations 1
smoothSolver:  Solving for Uy, Initial residual = 0.000459754, Final residual = 1.64533e-06, No Iterations 1
DICPCG:  Solving for p, Initial residual = 0.000168483, Final residual = 7.16866e-06, No Iterations 5
time step continuity errors : sum local = 1.45159e-10, global = 4.21739e-12, cumulative = 2.90398e-07
DICPCG:  Solving for p, Initial residual = 3.28492e-05, Final residual = 9.08912e-07, No Iterations 17
time step continuity errors : sum local = 1.84047e-11, global = -3.10073e-12, cumulative = 2.90395e-07
ExecutionTime = 15.24 s  ClockTime = 34 s

End

