/work/05113/danieler/stampede2/CFD-Final-Project/circular-cylinder-10-1
Mon May 11 01:19:29 CDT 2020
/*---------------------------------------------------------------------------*\
  =========                 |
  \\      /  F ield         | OpenFOAM: The Open Source CFD Toolbox
   \\    /   O peration     | Website:  https://openfoam.org
    \\  /    A nd           | Version:  6.0
     \\/     M anipulation  |
\*---------------------------------------------------------------------------*/
Build  : 6.0
Exec   : blockMesh
Date   : May 11 2020
Time   : 01:19:30
Host   : "c441-092.stampede2.tacc.utexas.edu"
PID    : 120087
I/O    : uncollated
Case   : /work/05113/danieler/stampede2/CFD-Final-Project/circular-cylinder-10-1
nProcs : 1
sigFpe : Enabling floating point exception trapping (FOAM_SIGFPE).
fileModificationChecking : Monitoring run-time modified files using timeStampMaster (fileModificationSkew 10)
allowSystemOperations : Allowing user-supplied system call operations

// * * * * * * * * * * * * * * * * * * * * * * * * * * * * * * * * * * * * * //
Create time

Creating block mesh from
    "/work/05113/danieler/stampede2/CFD-Final-Project/circular-cylinder-10-1/system/blockMeshDict"
Creating block edges
No non-planar block faces defined
Creating topology blocks
Creating topology patches

Creating block mesh topology

Check topology

	Basic statistics
		Number of internal faces : 28
		Number of boundary faces : 64
		Number of defined boundary faces : 64
		Number of undefined boundary faces : 0
	Checking patch -> block consistency

Creating block offsets
Creating merge list .

Creating polyMesh from blockMesh
Creating points with scale 1
    Block 0 cell size :
        i : 0.05 .. 0.05
        j : 0.0392592 .. 0.0392592
        k : 1 .. 1

    Block 1 cell size :
        i : 0.0392592 .. 0.0392592
        j : 0.05 .. 0.05
        k : 1 .. 1

    Block 2 cell size :
        i : 0.0392592 .. 0.0392592
        j : 0.0499924 .. 0.0499924
        k : 1 .. 1

    Block 3 cell size :
        i : 0.05 .. 0.05
        j : 0.0785183 .. 0.0785183
        k : 1 .. 1

    Block 4 cell size :
        i : 0.0499924 .. 0.0499924
        j : 0.0785183 .. 0.0785183
        k : 1 .. 1

    Block 5 cell size :
        i : 0.0785183 .. 0.0785183
        j : 0.0499924 .. 0.0499924
        k : 1 .. 1

    Block 6 cell size :
        i : 0.0785183 .. 0.0785183
        j : 0.05 .. 0.05
        k : 1 .. 1

    Block 7 cell size :
        i : 0.0499924 .. 0.0499924
        j : 0.0392592 .. 0.0392592
        k : 1 .. 1

    Block 8 cell size :
        i : 0.26355 .. 1.0542
        j : 0.0785183 .. 0.0785183
        k : 1 .. 1

    Block 9 cell size :
        i : 0.270262 .. 1.08105
        j : 0.126864 .. 0.507457
        k : 1 .. 1

    Block 10 cell size :
        i : 0.0785183 .. 0.0785183
        j : 0.11356 .. 0.454238
        k : 1 .. 1

    Block 11 cell size :
        i : 0.0785183 .. 0.0785183
        j : 0.126864 .. 0.507457
        k : 1 .. 1

    Block 12 cell size :
        i : 0.27929 .. 0.27929
        j : 0.126864 .. 0.507457
        k : 1 .. 1

    Block 13 cell size :
        i : 0.25 .. 0.25
        j : 0.07071 .. 0.07071
        k : 1 .. 1

    Block 14 cell size :
        i : 0.27929 .. 0.27929
        j : 0.07071 .. 0.07071
        k : 1 .. 1

    Block 15 cell size :
        i : 0.27929 .. 0.27929
        j : 0.507457 .. 0.126864
        k : 1 .. 1

    Block 16 cell size :
        i : 0.07071 .. 0.07071
        j : 0.507457 .. 0.126864
        k : 1 .. 1

    Block 17 cell size :
        i : 0.07071 .. 0.07071
        j : 0.454238 .. 0.11356
        k : 1 .. 1

    Block 18 cell size :
        i : 0.270262 .. 1.08105
        j : 0.507457 .. 0.126864
        k : 1 .. 1

    Block 19 cell size :
        i : 0.270262 .. 1.08105
        j : 0.0785183 .. 0.0785183
        k : 1 .. 1

Creating cells
Creating patches

Writing polyMesh
----------------
Mesh Information
----------------
  boundingBox: (-3.5 -3.5 0) (12.5 3.5 1)
  nPoints: 5060
  nCells: 2400
  nFaces: 9730
  nInternalFaces: 4670
----------------
Patches
----------------
  patch 0 (start: 4670 size: 40) name: inlet
  patch 1 (start: 4710 size: 40) name: outlet
  patch 2 (start: 4750 size: 50) name: top
  patch 3 (start: 4800 size: 50) name: bottom
  patch 4 (start: 4850 size: 80) name: cylinder
  patch 5 (start: 4930 size: 4800) name: frontandback

End

/*---------------------------------------------------------------------------*\
  =========                 |
  \\      /  F ield         | OpenFOAM: The Open Source CFD Toolbox
   \\    /   O peration     | Website:  https://openfoam.org
    \\  /    A nd           | Version:  6.0
     \\/     M anipulation  |
\*---------------------------------------------------------------------------*/
Build  : 6.0
Exec   : checkMesh
Date   : May 11 2020
Time   : 01:19:31
Host   : "c441-092.stampede2.tacc.utexas.edu"
PID    : 120091
I/O    : uncollated
Case   : /work/05113/danieler/stampede2/CFD-Final-Project/circular-cylinder-10-1
nProcs : 1
sigFpe : Enabling floating point exception trapping (FOAM_SIGFPE).
fileModificationChecking : Monitoring run-time modified files using timeStampMaster (fileModificationSkew 10)
allowSystemOperations : Allowing user-supplied system call operations

// * * * * * * * * * * * * * * * * * * * * * * * * * * * * * * * * * * * * * //
Create time

Create polyMesh for time = 0

Time = 0

Mesh stats
    points:           5060
    internal points:  0
    faces:            9730
    internal faces:   4670
    cells:            2400
    faces per cell:   6
    boundary patches: 6
    point zones:      0
    face zones:       0
    cell zones:       0

Overall number of cells of each type:
    hexahedra:     2400
    prisms:        0
    wedges:        0
    pyramids:      0
    tet wedges:    0
    tetrahedra:    0
    polyhedra:     0

Checking topology...
    Boundary definition OK.
    Cell to face addressing OK.
    Point usage OK.
    Upper triangular ordering OK.
    Face vertices OK.
    Number of regions: 1 (OK).

Checking patch topology for multiply connected surfaces...
    Patch               Faces    Points   Surface topology                  
    inlet               40       82       ok (non-closed singly connected)  
    outlet              40       82       ok (non-closed singly connected)  
    top                 50       102      ok (non-closed singly connected)  
    bottom              50       102      ok (non-closed singly connected)  
    cylinder            80       160      ok (non-closed singly connected)  
    frontandback        4800     5060     ok (non-closed singly connected)  

Checking geometry...
    Overall domain bounding box (-3.5 -3.5 0) (12.5 3.5 1)
    Mesh has 2 geometric (non-empty/wedge) directions (1 1 0)
    Mesh has 2 solution (non-empty) directions (1 1 0)
    All edges aligned with or perpendicular to non-empty directions.
    Boundary openness (-1.63526e-18 9.40272e-18 -1.04237e-15) OK.
    Max cell openness = 2.18433e-16 OK.
    Max aspect ratio = 15.2885 OK.
    Minimum face area = 0.00205925. Maximum face area = 1.08105.  Face area magnitudes OK.
    Min volume = 0.00205925. Max volume = 0.548585.  Total volume = 111.215.  Cell volumes OK.
    Mesh non-orthogonality Max: 41.969 average: 11.2951
    Non-orthogonality check OK.
    Face pyramids OK.
    Max skewness = 0.47037 OK.
    Coupled point location match (average 0) OK.

Mesh OK.

End

/*---------------------------------------------------------------------------*\
  =========                 |
  \\      /  F ield         | OpenFOAM: The Open Source CFD Toolbox
   \\    /   O peration     | Website:  https://openfoam.org
    \\  /    A nd           | Version:  6.0
     \\/     M anipulation  |
\*---------------------------------------------------------------------------*/
Build  : 6.0
Exec   : decomposePar
Date   : May 11 2020
Time   : 01:19:32
Host   : "c441-092.stampede2.tacc.utexas.edu"
PID    : 120147
I/O    : uncollated
Case   : /work/05113/danieler/stampede2/CFD-Final-Project/circular-cylinder-10-1
nProcs : 1
sigFpe : Enabling floating point exception trapping (FOAM_SIGFPE).
fileModificationChecking : Monitoring run-time modified files using timeStampMaster (fileModificationSkew 10)
allowSystemOperations : Allowing user-supplied system call operations

// * * * * * * * * * * * * * * * * * * * * * * * * * * * * * * * * * * * * * //
Create time



Decomposing mesh region0

Create mesh

Calculating distribution of cells
Selecting decompositionMethod hierarchical

Finished decomposition in 0 s

Calculating original mesh data

Distributing cells to processors

Distributing faces to processors

Distributing points to processors

Constructing processor meshes

Processor 0
    Number of cells = 600
    Number of faces shared with processor 1 = 62
    Number of processor patches = 1
    Number of processor faces = 62
    Number of boundary faces = 1264

Processor 1
    Number of cells = 600
    Number of faces shared with processor 0 = 62
    Number of faces shared with processor 2 = 49
    Number of processor patches = 2
    Number of processor faces = 111
    Number of boundary faces = 1281

Processor 2
    Number of cells = 600
    Number of faces shared with processor 1 = 49
    Number of faces shared with processor 3 = 40
    Number of processor patches = 2
    Number of processor faces = 89
    Number of boundary faces = 1245

Processor 3
    Number of cells = 600
    Number of faces shared with processor 2 = 40
    Number of processor patches = 1
    Number of processor faces = 40
    Number of boundary faces = 1270

Number of processor faces = 151
Max number of cells = 600 (0% above average 600)
Max number of processor patches = 2 (33.3333% above average 1.5)
Max number of faces between processors = 111 (47.0199% above average 75.5)

Time = 0
--> FOAM Warning : 
    From function bool Foam::IOobject::readHeader(Foam::Istream &)
    in file db/IOobject/IOobjectReadHeader.C at line 88
    Reading "/work/05113/danieler/stampede2/CFD-Final-Project/circular-cylinder-10-1/0/log" at line 8
    First token could not be read or is not the keyword 'FoamFile'

Check header is of the form:

/*--------------------------------*- C++ -*----------------------------------*\
  =========                 |
  \\      /  F ield         | OpenFOAM: The Open Source CFD Toolbox
   \\    /   O peration     | Website:  https://openfoam.org
    \\  /    A nd           | Version:  6.0
     \\/     M anipulation  |
\*---------------------------------------------------------------------------*/
FoamFile
{
    version     2.0;
    format      ascii;
    class       IOobject;
    location    "0";
    object      log;
}
// * * * * * * * * * * * * * * * * * * * * * * * * * * * * * * * * * * * * * //


Processor 0: field transfer
Processor 1: field transfer
Processor 2: field transfer
Processor 3: field transfer

End

TACC:  Starting up job 5678656 
TACC:  Starting parallel tasks... 
/*---------------------------------------------------------------------------*\
  =========                 |
  \\      /  F ield         | OpenFOAM: The Open Source CFD Toolbox
   \\    /   O peration     | Website:  https://openfoam.org
    \\  /    A nd           | Version:  6.0
     \\/     M anipulation  |
\*---------------------------------------------------------------------------*/
Build  : 6.0
Exec   : /home1/apps/intel18/impi18_0/OpenFOAM/OpenFOAM-6.0/platforms/linux64IccDPInt32Opt/bin/icoFoam -parallel
Date   : May 11 2020
Time   : 01:19:36
Host   : "c441-092.stampede2.tacc.utexas.edu"
PID    : 120273
I/O    : uncollated
Case   : /work/05113/danieler/stampede2/CFD-Final-Project/circular-cylinder-10-1
nProcs : 4
Slaves : 
3
(
"c441-092.stampede2.tacc.utexas.edu.120274"
"c441-092.stampede2.tacc.utexas.edu.120275"
"c441-092.stampede2.tacc.utexas.edu.120276"
)

Pstream initialized with:
    floatTransfer      : 0
    nProcsSimpleSum    : 0
    commsType          : nonBlocking
    polling iterations : 0
sigFpe : Enabling floating point exception trapping (FOAM_SIGFPE).
fileModificationChecking : Monitoring run-time modified files using timeStampMaster (fileModificationSkew 10)
allowSystemOperations : Allowing user-supplied system call operations

// * * * * * * * * * * * * * * * * * * * * * * * * * * * * * * * * * * * * * //
Create time

Create mesh for time = 0

Reading transportProperties

Reading field p

Reading field U

Reading/calculating face flux field phi


Starting time loop

Time = 0.05

Courant Number mean: 0.169273 max: 1.49225
smoothSolver:  Solving for Ux, Initial residual = 1, Final residual = 5.82637e-06, No Iterations 14
smoothSolver:  Solving for Uy, Initial residual = 1, Final residual = 4.74184e-06, No Iterations 14
DICPCG:  Solving for p, Initial residual = 1, Final residual = 0.0469034, No Iterations 55
time step continuity errors : sum local = 4.56346e-05, global = -1.34638e-06, cumulative = -1.34638e-06
DICPCG:  Solving for p, Initial residual = 0.352921, Final residual = 9.04767e-07, No Iterations 100
time step continuity errors : sum local = 3.72457e-09, global = -6.82622e-11, cumulative = -1.34644e-06
ExecutionTime = 0.11 s  ClockTime = 0 s

Time = 0.1

Courant Number mean: 0.175101 max: 1.70853
smoothSolver:  Solving for Ux, Initial residual = 0.21135, Final residual = 5.21574e-06, No Iterations 12
smoothSolver:  Solving for Uy, Initial residual = 0.311003, Final residual = 6.17828e-06, No Iterations 12
DICPCG:  Solving for p, Initial residual = 0.434323, Final residual = 0.0199129, No Iterations 54
time step continuity errors : sum local = 7.16057e-05, global = -6.74678e-08, cumulative = -1.41391e-06
DICPCG:  Solving for p, Initial residual = 0.489082, Final residual = 8.64187e-07, No Iterations 100
time step continuity errors : sum local = 2.48243e-09, global = 4.95409e-11, cumulative = -1.41386e-06
ExecutionTime = 0.13 s  ClockTime = 0 s

Time = 0.15

Courant Number mean: 0.175091 max: 1.68111
smoothSolver:  Solving for Ux, Initial residual = 0.0295009, Final residual = 5.5465e-06, No Iterations 9
smoothSolver:  Solving for Uy, Initial residual = 0.0665493, Final residual = 6.82939e-06, No Iterations 9
DICPCG:  Solving for p, Initial residual = 0.84805, Final residual = 0.0354134, No Iterations 24
time step continuity errors : sum local = 2.83788e-05, global = -5.61531e-06, cumulative = -7.02917e-06
DICPCG:  Solving for p, Initial residual = 0.576975, Final residual = 9.76004e-07, No Iterations 96
time step continuity errors : sum local = 6.76739e-10, global = -7.77903e-13, cumulative = -7.02917e-06
ExecutionTime = 0.15 s  ClockTime = 0 s

Time = 0.2

Courant Number mean: 0.175052 max: 1.58266
smoothSolver:  Solving for Ux, Initial residual = 0.0220298, Final residual = 8.41481e-06, No Iterations 8
smoothSolver:  Solving for Uy, Initial residual = 0.0364731, Final residual = 9.6718e-06, No Iterations 8
DICPCG:  Solving for p, Initial residual = 0.328528, Final residual = 0.0143639, No Iterations 47
time step continuity errors : sum local = 6.49289e-06, global = -1.68317e-07, cumulative = -7.19749e-06
DICPCG:  Solving for p, Initial residual = 0.280438, Final residual = 7.20794e-07, No Iterations 95
time step continuity errors : sum local = 2.38984e-10, global = -4.80711e-12, cumulative = -7.1975e-06
ExecutionTime = 0.17 s  ClockTime = 0 s

Time = 0.25

Courant Number mean: 0.175085 max: 1.52647
smoothSolver:  Solving for Ux, Initial residual = 0.0125992, Final residual = 6.30585e-06, No Iterations 8
smoothSolver:  Solving for Uy, Initial residual = 0.0235545, Final residual = 8.03805e-06, No Iterations 8
DICPCG:  Solving for p, Initial residual = 0.148464, Final residual = 0.00676176, No Iterations 27
time step continuity errors : sum local = 2.04179e-06, global = 3.91936e-07, cumulative = -6.80556e-06
DICPCG:  Solving for p, Initial residual = 0.098801, Final residual = 8.27304e-07, No Iterations 93
time step continuity errors : sum local = 2.43841e-10, global = 6.00394e-13, cumulative = -6.80556e-06
ExecutionTime = 0.21 s  ClockTime = 0 s

Time = 0.3

Courant Number mean: 0.175133 max: 1.49304
smoothSolver:  Solving for Ux, Initial residual = 0.0102269, Final residual = 4.89111e-06, No Iterations 8
smoothSolver:  Solving for Uy, Initial residual = 0.0207909, Final residual = 6.80404e-06, No Iterations 8
DICPCG:  Solving for p, Initial residual = 0.0997618, Final residual = 0.00432677, No Iterations 28
time step continuity errors : sum local = 1.21995e-06, global = 3.00645e-07, cumulative = -6.50491e-06
DICPCG:  Solving for p, Initial residual = 0.0645558, Final residual = 8.18357e-07, No Iterations 91
time step continuity errors : sum local = 2.26616e-10, global = -3.45126e-13, cumulative = -6.50491e-06
ExecutionTime = 0.24 s  ClockTime = 0 s

Time = 0.35

Courant Number mean: 0.17519 max: 1.46618
smoothSolver:  Solving for Ux, Initial residual = 0.00852217, Final residual = 8.31058e-06, No Iterations 7
smoothSolver:  Solving for Uy, Initial residual = 0.0183188, Final residual = 5.86178e-06, No Iterations 8
DICPCG:  Solving for p, Initial residual = 0.0776252, Final residual = 0.00354473, No Iterations 27
time step continuity errors : sum local = 9.49417e-07, global = 1.32414e-07, cumulative = -6.3725e-06
DICPCG:  Solving for p, Initial residual = 0.050744, Final residual = 8.19579e-07, No Iterations 91
time step continuity errors : sum local = 2.18414e-10, global = 1.17749e-12, cumulative = -6.3725e-06
ExecutionTime = 0.26 s  ClockTime = 0 s

Time = 0.4

Courant Number mean: 0.175254 max: 1.44262
smoothSolver:  Solving for Ux, Initial residual = 0.00741518, Final residual = 6.8293e-06, No Iterations 7
smoothSolver:  Solving for Uy, Initial residual = 0.0166834, Final residual = 5.10992e-06, No Iterations 8
DICPCG:  Solving for p, Initial residual = 0.0643073, Final residual = 0.00295357, No Iterations 27
time step continuity errors : sum local = 7.71656e-07, global = 9.83864e-08, cumulative = -6.27411e-06
DICPCG:  Solving for p, Initial residual = 0.0428579, Final residual = 7.63426e-07, No Iterations 91
time step continuity errors : sum local = 1.99217e-10, global = 6.06514e-13, cumulative = -6.27411e-06
ExecutionTime = 0.27 s  ClockTime = 0 s

Time = 0.45

Courant Number mean: 0.175326 max: 1.42232
smoothSolver:  Solving for Ux, Initial residual = 0.00660628, Final residual = 5.71336e-06, No Iterations 7
smoothSolver:  Solving for Uy, Initial residual = 0.015407, Final residual = 9.52012e-06, No Iterations 7
DICPCG:  Solving for p, Initial residual = 0.0563743, Final residual = 0.00279878, No Iterations 26
time step continuity errors : sum local = 7.19091e-07, global = 6.00835e-08, cumulative = -6.21403e-06
DICPCG:  Solving for p, Initial residual = 0.0378472, Final residual = 9.27794e-07, No Iterations 90
time step continuity errors : sum local = 2.38653e-10, global = -1.13036e-13, cumulative = -6.21403e-06
ExecutionTime = 0.29 s  ClockTime = 0 s

Time = 0.5

Courant Number mean: 0.175405 max: 1.40649
smoothSolver:  Solving for Ux, Initial residual = 0.00599219, Final residual = 4.84798e-06, No Iterations 7
smoothSolver:  Solving for Uy, Initial residual = 0.0143657, Final residual = 8.4522e-06, No Iterations 7
DICPCG:  Solving for p, Initial residual = 0.0502313, Final residual = 0.00242134, No Iterations 26
time step continuity errors : sum local = 6.1566e-07, global = 3.95459e-08, cumulative = -6.17448e-06
DICPCG:  Solving for p, Initial residual = 0.0334756, Final residual = 8.41547e-07, No Iterations 90
time step continuity errors : sum local = 2.1444e-10, global = 1.38454e-14, cumulative = -6.17448e-06
ExecutionTime = 0.34 s  ClockTime = 0 s

Time = 0.55

Courant Number mean: 0.175489 max: 1.3945
smoothSolver:  Solving for Ux, Initial residual = 0.00550661, Final residual = 8.99995e-06, No Iterations 6
smoothSolver:  Solving for Uy, Initial residual = 0.0134881, Final residual = 7.55406e-06, No Iterations 7
DICPCG:  Solving for p, Initial residual = 0.0441391, Final residual = 0.00210971, No Iterations 26
time step continuity errors : sum local = 5.41244e-07, global = 2.68694e-08, cumulative = -6.14761e-06
DICPCG:  Solving for p, Initial residual = 0.0290472, Final residual = 7.52562e-07, No Iterations 90
time step continuity errors : sum local = 1.93087e-10, global = 1.65368e-13, cumulative = -6.14761e-06
ExecutionTime = 0.36 s  ClockTime = 0 s

Time = 0.6

Courant Number mean: 0.175577 max: 1.38654
smoothSolver:  Solving for Ux, Initial residual = 0.00511056, Final residual = 7.82467e-06, No Iterations 6
smoothSolver:  Solving for Uy, Initial residual = 0.0127388, Final residual = 6.78948e-06, No Iterations 7
DICPCG:  Solving for p, Initial residual = 0.0391337, Final residual = 0.00184086, No Iterations 26
time step continuity errors : sum local = 4.77686e-07, global = 1.10408e-08, cumulative = -6.13657e-06
DICPCG:  Solving for p, Initial residual = 0.0254776, Final residual = 9.07997e-07, No Iterations 89
time step continuity errors : sum local = 2.35589e-10, global = -8.45104e-13, cumulative = -6.13657e-06
ExecutionTime = 0.37 s  ClockTime = 0 s

Time = 0.65

Courant Number mean: 0.175668 max: 1.37932
smoothSolver:  Solving for Ux, Initial residual = 0.00478452, Final residual = 6.85022e-06, No Iterations 6
smoothSolver:  Solving for Uy, Initial residual = 0.0121, Final residual = 6.13698e-06, No Iterations 7
DICPCG:  Solving for p, Initial residual = 0.0350209, Final residual = 0.00166157, No Iterations 26
time step continuity errors : sum local = 4.357e-07, global = 1.42036e-09, cumulative = -6.13515e-06
DICPCG:  Solving for p, Initial residual = 0.0226405, Final residual = 7.90845e-07, No Iterations 89
time step continuity errors : sum local = 2.07286e-10, global = -4.35897e-13, cumulative = -6.13515e-06
ExecutionTime = 0.39 s  ClockTime = 0 s

Time = 0.7

Courant Number mean: 0.17576 max: 1.37279
smoothSolver:  Solving for Ux, Initial residual = 0.00451106, Final residual = 6.03934e-06, No Iterations 6
smoothSolver:  Solving for Uy, Initial residual = 0.0115719, Final residual = 5.57275e-06, No Iterations 7
DICPCG:  Solving for p, Initial residual = 0.0317887, Final residual = 0.00152643, No Iterations 26
time step continuity errors : sum local = 4.04362e-07, global = -7.16647e-09, cumulative = -6.14232e-06
DICPCG:  Solving for p, Initial residual = 0.0203295, Final residual = 7.11495e-07, No Iterations 89
time step continuity errors : sum local = 1.88429e-10, global = -3.38627e-14, cumulative = -6.14232e-06
ExecutionTime = 0.42 s  ClockTime = 0 s

Time = 0.75

Courant Number mean: 0.175855 max: 1.36693
smoothSolver:  Solving for Ux, Initial residual = 0.00428317, Final residual = 5.3565e-06, No Iterations 6
smoothSolver:  Solving for Uy, Initial residual = 0.0111027, Final residual = 5.08166e-06, No Iterations 7
DICPCG:  Solving for p, Initial residual = 0.0291663, Final residual = 0.00143439, No Iterations 26
time step continuity errors : sum local = 3.8367e-07, global = -1.35341e-08, cumulative = -6.15585e-06
DICPCG:  Solving for p, Initial residual = 0.0184914, Final residual = 9.55499e-07, No Iterations 88
time step continuity errors : sum local = 2.55418e-10, global = -1.39823e-12, cumulative = -6.15586e-06
ExecutionTime = 0.46 s  ClockTime = 0 s

Time = 0.8

Courant Number mean: 0.17595 max: 1.3617
smoothSolver:  Solving for Ux, Initial residual = 0.00408334, Final residual = 4.77644e-06, No Iterations 6
smoothSolver:  Solving for Uy, Initial residual = 0.010686, Final residual = 4.65266e-06, No Iterations 7
DICPCG:  Solving for p, Initial residual = 0.0270155, Final residual = 0.00118233, No Iterations 27
time step continuity errors : sum local = 3.19026e-07, global = -2.26746e-08, cumulative = -6.17853e-06
DICPCG:  Solving for p, Initial residual = 0.0168993, Final residual = 8.93784e-07, No Iterations 88
time step continuity errors : sum local = 2.40923e-10, global = -1.17741e-12, cumulative = -6.17853e-06
ExecutionTime = 0.48 s  ClockTime = 0 s

Time = 0.85

Courant Number mean: 0.176045 max: 1.35706
smoothSolver:  Solving for Ux, Initial residual = 0.00390835, Final residual = 9.60488e-06, No Iterations 5
smoothSolver:  Solving for Uy, Initial residual = 0.0103137, Final residual = 9.26506e-06, No Iterations 6
DICPCG:  Solving for p, Initial residual = 0.0249751, Final residual = 0.00112624, No Iterations 27
time step continuity errors : sum local = 3.06218e-07, global = -2.13067e-08, cumulative = -6.19984e-06
DICPCG:  Solving for p, Initial residual = 0.0155766, Final residual = 8.25796e-07, No Iterations 88
time step continuity errors : sum local = 2.24229e-10, global = -1.03237e-12, cumulative = -6.19984e-06
ExecutionTime = 0.5 s  ClockTime = 0 s

Time = 0.9

Courant Number mean: 0.176141 max: 1.35297
smoothSolver:  Solving for Ux, Initial residual = 0.00375239, Final residual = 8.67766e-06, No Iterations 5
smoothSolver:  Solving for Uy, Initial residual = 0.00996266, Final residual = 8.55204e-06, No Iterations 6
DICPCG:  Solving for p, Initial residual = 0.0234638, Final residual = 0.00109494, No Iterations 27
time step continuity errors : sum local = 2.99797e-07, global = -2.8004e-08, cumulative = -6.22784e-06
DICPCG:  Solving for p, Initial residual = 0.0146171, Final residual = 7.56753e-07, No Iterations 88
time step continuity errors : sum local = 2.06868e-10, global = -7.06117e-13, cumulative = -6.22784e-06
ExecutionTime = 0.52 s  ClockTime = 0 s

Time = 0.95

Courant Number mean: 0.176237 max: 1.34939
smoothSolver:  Solving for Ux, Initial residual = 0.00361676, Final residual = 7.85544e-06, No Iterations 5
smoothSolver:  Solving for Uy, Initial residual = 0.00963854, Final residual = 7.91641e-06, No Iterations 6
DICPCG:  Solving for p, Initial residual = 0.0221352, Final residual = 0.0010702, No Iterations 27
time step continuity errors : sum local = 2.94733e-07, global = -2.86113e-08, cumulative = -6.25646e-06
DICPCG:  Solving for p, Initial residual = 0.0138416, Final residual = 7.37996e-07, No Iterations 88
time step continuity errors : sum local = 2.0287e-10, global = -4.86698e-13, cumulative = -6.25646e-06
ExecutionTime = 0.53 s  ClockTime = 0 s

Time = 1

Courant Number mean: 0.176334 max: 1.34628
smoothSolver:  Solving for Ux, Initial residual = 0.00349868, Final residual = 7.1535e-06, No Iterations 5
smoothSolver:  Solving for Uy, Initial residual = 0.0093561, Final residual = 7.34958e-06, No Iterations 6
DICPCG:  Solving for p, Initial residual = 0.021005, Final residual = 0.000980841, No Iterations 28
time step continuity errors : sum local = 2.71553e-07, global = -2.62705e-08, cumulative = -6.28273e-06
DICPCG:  Solving for p, Initial residual = 0.0131076, Final residual = 6.9911e-07, No Iterations 88
time step continuity errors : sum local = 1.93165e-10, global = -3.09375e-13, cumulative = -6.28273e-06
ExecutionTime = 0.57 s  ClockTime = 1 s

Time = 1.05

Courant Number mean: 0.17643 max: 1.3436
smoothSolver:  Solving for Ux, Initial residual = 0.00339323, Final residual = 6.55042e-06, No Iterations 5
smoothSolver:  Solving for Uy, Initial residual = 0.00912265, Final residual = 6.84343e-06, No Iterations 6
DICPCG:  Solving for p, Initial residual = 0.0199791, Final residual = 0.000964601, No Iterations 28
time step continuity errors : sum local = 2.68345e-07, global = -2.71675e-08, cumulative = -6.30989e-06
DICPCG:  Solving for p, Initial residual = 0.0125161, Final residual = 6.65624e-07, No Iterations 88
time step continuity errors : sum local = 1.84782e-10, global = -8.23913e-14, cumulative = -6.30989e-06
ExecutionTime = 0.59 s  ClockTime = 1 s

Time = 1.1

Courant Number mean: 0.176525 max: 1.34151
smoothSolver:  Solving for Ux, Initial residual = 0.00329807, Final residual = 6.01663e-06, No Iterations 5
smoothSolver:  Solving for Uy, Initial residual = 0.00890978, Final residual = 6.38792e-06, No Iterations 6
DICPCG:  Solving for p, Initial residual = 0.019048, Final residual = 0.000932885, No Iterations 28
time step continuity errors : sum local = 2.60781e-07, global = -2.77073e-08, cumulative = -6.3376e-06
DICPCG:  Solving for p, Initial residual = 0.0119678, Final residual = 6.32663e-07, No Iterations 88
time step continuity errors : sum local = 1.76601e-10, global = 1.53878e-13, cumulative = -6.3376e-06
ExecutionTime = 0.61 s  ClockTime = 1 s

Time = 1.15

Courant Number mean: 0.176619 max: 1.34036
smoothSolver:  Solving for Ux, Initial residual = 0.00321107, Final residual = 5.54101e-06, No Iterations 5
smoothSolver:  Solving for Uy, Initial residual = 0.00871399, Final residual = 5.97804e-06, No Iterations 6
DICPCG:  Solving for p, Initial residual = 0.0181952, Final residual = 0.000908295, No Iterations 28
time step continuity errors : sum local = 2.55183e-07, global = -2.781e-08, cumulative = -6.36541e-06
DICPCG:  Solving for p, Initial residual = 0.011464, Final residual = 9.49566e-07, No Iterations 87
time step continuity errors : sum local = 2.66365e-10, global = 5.19633e-13, cumulative = -6.36541e-06
ExecutionTime = 0.63 s  ClockTime = 1 s

Time = 1.2

Courant Number mean: 0.176712 max: 1.33947
smoothSolver:  Solving for Ux, Initial residual = 0.0031306, Final residual = 5.1151e-06, No Iterations 5
smoothSolver:  Solving for Uy, Initial residual = 0.00853186, Final residual = 5.60814e-06, No Iterations 6
DICPCG:  Solving for p, Initial residual = 0.0174311, Final residual = 0.000789612, No Iterations 29
time step continuity errors : sum local = 2.22831e-07, global = -2.24599e-08, cumulative = -6.38787e-06
DICPCG:  Solving for p, Initial residual = 0.0109817, Final residual = 9.47042e-07, No Iterations 87
time step continuity errors : sum local = 2.66799e-10, global = 1.04175e-12, cumulative = -6.38787e-06
ExecutionTime = 0.65 s  ClockTime = 1 s

Time = 1.25

Courant Number mean: 0.176805 max: 1.3388
smoothSolver:  Solving for Ux, Initial residual = 0.00305553, Final residual = 4.73264e-06, No Iterations 5
smoothSolver:  Solving for Uy, Initial residual = 0.00834895, Final residual = 5.27251e-06, No Iterations 6
DICPCG:  Solving for p, Initial residual = 0.0167189, Final residual = 0.000835168, No Iterations 28
time step continuity errors : sum local = 2.36617e-07, global = -2.6642e-08, cumulative = -6.41451e-06
DICPCG:  Solving for p, Initial residual = 0.0105649, Final residual = 8.87651e-07, No Iterations 87
time step continuity errors : sum local = 2.51037e-10, global = 1.27465e-12, cumulative = -6.41451e-06
ExecutionTime = 0.69 s  ClockTime = 1 s

Time = 1.3

Courant Number mean: 0.176897 max: 1.33834
smoothSolver:  Solving for Ux, Initial residual = 0.00298675, Final residual = 4.38759e-06, No Iterations 5
smoothSolver:  Solving for Uy, Initial residual = 0.00816804, Final residual = 4.96865e-06, No Iterations 6
DICPCG:  Solving for p, Initial residual = 0.0160966, Final residual = 0.00072845, No Iterations 29
time step continuity errors : sum local = 2.07115e-07, global = -2.2087e-08, cumulative = -6.4366e-06
DICPCG:  Solving for p, Initial residual = 0.0101361, Final residual = 8.09902e-07, No Iterations 87
time step continuity errors : sum local = 2.29859e-10, global = 1.47619e-12, cumulative = -6.4366e-06
ExecutionTime = 0.72 s  ClockTime = 1 s

Time = 1.35

Courant Number mean: 0.176989 max: 1.33805
smoothSolver:  Solving for Ux, Initial residual = 0.00292444, Final residual = 9.6477e-06, No Iterations 4
smoothSolver:  Solving for Uy, Initial residual = 0.00799136, Final residual = 4.69253e-06, No Iterations 6
DICPCG:  Solving for p, Initial residual = 0.0154194, Final residual = 0.000744045, No Iterations 28
time step continuity errors : sum local = 2.12192e-07, global = -1.94538e-08, cumulative = -6.45605e-06
DICPCG:  Solving for p, Initial residual = 0.00969235, Final residual = 8.0348e-07, No Iterations 87
time step continuity errors : sum local = 2.28749e-10, global = 1.18149e-12, cumulative = -6.45605e-06
ExecutionTime = 0.74 s  ClockTime = 1 s

Time = 1.4

Courant Number mean: 0.177079 max: 1.33791
smoothSolver:  Solving for Ux, Initial residual = 0.00286611, Final residual = 9.0227e-06, No Iterations 4
smoothSolver:  Solving for Uy, Initial residual = 0.00782695, Final residual = 9.87233e-06, No Iterations 5
DICPCG:  Solving for p, Initial residual = 0.0148143, Final residual = 0.000642968, No Iterations 29
time step continuity errors : sum local = 1.83933e-07, global = -1.94971e-08, cumulative = -6.47555e-06
DICPCG:  Solving for p, Initial residual = 0.00923697, Final residual = 7.6586e-07, No Iterations 87
time step continuity errors : sum local = 2.18697e-10, global = 1.45277e-12, cumulative = -6.47554e-06
ExecutionTime = 0.76 s  ClockTime = 1 s

Time = 1.45

Courant Number mean: 0.177167 max: 1.33971
smoothSolver:  Solving for Ux, Initial residual = 0.00281211, Final residual = 8.42431e-06, No Iterations 4
smoothSolver:  Solving for Uy, Initial residual = 0.0076941, Final residual = 9.36891e-06, No Iterations 5
DICPCG:  Solving for p, Initial residual = 0.014294, Final residual = 0.000711753, No Iterations 28
time step continuity errors : sum local = 2.04152e-07, global = -2.0979e-08, cumulative = -6.49652e-06
DICPCG:  Solving for p, Initial residual = 0.00893009, Final residual = 7.40175e-07, No Iterations 87
time step continuity errors : sum local = 2.11997e-10, global = 1.43929e-12, cumulative = -6.49652e-06
ExecutionTime = 0.77 s  ClockTime = 1 s

Time = 1.5

Courant Number mean: 0.177254 max: 1.34173
smoothSolver:  Solving for Ux, Initial residual = 0.00276073, Final residual = 7.88246e-06, No Iterations 4
smoothSolver:  Solving for Uy, Initial residual = 0.00757141, Final residual = 8.89637e-06, No Iterations 5
DICPCG:  Solving for p, Initial residual = 0.0138071, Final residual = 0.000585673, No Iterations 29
time step continuity errors : sum local = 1.68476e-07, global = -1.77021e-08, cumulative = -6.51422e-06
DICPCG:  Solving for p, Initial residual = 0.00855324, Final residual = 9.86834e-07, No Iterations 86
time step continuity errors : sum local = 2.83448e-10, global = 2.6592e-12, cumulative = -6.51422e-06
ExecutionTime = 0.81 s  ClockTime = 1 s

Time = 1.55

Courant Number mean: 0.177339 max: 1.34364
smoothSolver:  Solving for Ux, Initial residual = 0.00271172, Final residual = 7.38654e-06, No Iterations 4
smoothSolver:  Solving for Uy, Initial residual = 0.00745096, Final residual = 8.46106e-06, No Iterations 5
DICPCG:  Solving for p, Initial residual = 0.0133046, Final residual = 0.000557397, No Iterations 29
time step continuity errors : sum local = 1.60782e-07, global = -1.70069e-08, cumulative = -6.53123e-06
DICPCG:  Solving for p, Initial residual = 0.0082239, Final residual = 9.26075e-07, No Iterations 86
time step continuity errors : sum local = 2.668e-10, global = 2.51143e-12, cumulative = -6.53123e-06
ExecutionTime = 0.84 s  ClockTime = 1 s

Time = 1.6

Courant Number mean: 0.177422 max: 1.34545
smoothSolver:  Solving for Ux, Initial residual = 0.00266603, Final residual = 6.93168e-06, No Iterations 4
smoothSolver:  Solving for Uy, Initial residual = 0.00734276, Final residual = 8.06077e-06, No Iterations 5
DICPCG:  Solving for p, Initial residual = 0.0128441, Final residual = 0.000548248, No Iterations 29
time step continuity errors : sum local = 1.58585e-07, global = -1.67899e-08, cumulative = -6.54802e-06
DICPCG:  Solving for p, Initial residual = 0.00793329, Final residual = 9.21553e-07, No Iterations 86
time step continuity errors : sum local = 2.66228e-10, global = 2.81399e-12, cumulative = -6.54801e-06
ExecutionTime = 0.85 s  ClockTime = 1 s

Time = 1.65

Courant Number mean: 0.177503 max: 1.34718
smoothSolver:  Solving for Ux, Initial residual = 0.00262221, Final residual = 6.51382e-06, No Iterations 4
smoothSolver:  Solving for Uy, Initial residual = 0.0072346, Final residual = 7.69265e-06, No Iterations 5
DICPCG:  Solving for p, Initial residual = 0.0124336, Final residual = 0.000519409, No Iterations 29
time step continuity errors : sum local = 1.50623e-07, global = -1.60962e-08, cumulative = -6.56411e-06
DICPCG:  Solving for p, Initial residual = 0.00763837, Final residual = 8.7887e-07, No Iterations 86
time step continuity errors : sum local = 2.54539e-10, global = 2.81087e-12, cumulative = -6.56411e-06
ExecutionTime = 0.87 s  ClockTime = 1 s

Time = 1.7

Courant Number mean: 0.177584 max: 1.34885
smoothSolver:  Solving for Ux, Initial residual = 0.00258116, Final residual = 6.1299e-06, No Iterations 4
smoothSolver:  Solving for Uy, Initial residual = 0.00712701, Final residual = 7.35381e-06, No Iterations 5
DICPCG:  Solving for p, Initial residual = 0.0120317, Final residual = 0.000495908, No Iterations 29
time step continuity errors : sum local = 1.44127e-07, global = -1.53798e-08, cumulative = -6.57949e-06
DICPCG:  Solving for p, Initial residual = 0.00735248, Final residual = 8.17342e-07, No Iterations 86
time step continuity errors : sum local = 2.37235e-10, global = 2.68221e-12, cumulative = -6.57948e-06
ExecutionTime = 0.89 s  ClockTime = 1 s

Time = 1.75

Courant Number mean: 0.177665 max: 1.35045
smoothSolver:  Solving for Ux, Initial residual = 0.00254337, Final residual = 5.77615e-06, No Iterations 4
smoothSolver:  Solving for Uy, Initial residual = 0.00702001, Final residual = 7.04263e-06, No Iterations 5
DICPCG:  Solving for p, Initial residual = 0.0116724, Final residual = 0.00048637, No Iterations 29
time step continuity errors : sum local = 1.41637e-07, global = -1.5026e-08, cumulative = -6.59451e-06
DICPCG:  Solving for p, Initial residual = 0.00710117, Final residual = 7.99478e-07, No Iterations 86
time step continuity errors : sum local = 2.32521e-10, global = 2.92921e-12, cumulative = -6.59451e-06
ExecutionTime = 0.93 s  ClockTime = 1 s

Time = 1.8

Courant Number mean: 0.177743 max: 1.35201
smoothSolver:  Solving for Ux, Initial residual = 0.00250793, Final residual = 5.4495e-06, No Iterations 4
smoothSolver:  Solving for Uy, Initial residual = 0.00691647, Final residual = 6.75576e-06, No Iterations 5
DICPCG:  Solving for p, Initial residual = 0.0113271, Final residual = 0.000565314, No Iterations 28
time step continuity errors : sum local = 1.64949e-07, global = -1.62486e-08, cumulative = -6.61075e-06
DICPCG:  Solving for p, Initial residual = 0.00689225, Final residual = 7.76438e-07, No Iterations 86
time step continuity errors : sum local = 2.26286e-10, global = 3.03613e-12, cumulative = -6.61075e-06
ExecutionTime = 0.95 s  ClockTime = 1 s

Time = 1.85

Courant Number mean: 0.17782 max: 1.35354
smoothSolver:  Solving for Ux, Initial residual = 0.00247493, Final residual = 5.1482e-06, No Iterations 4
smoothSolver:  Solving for Uy, Initial residual = 0.00682174, Final residual = 6.49144e-06, No Iterations 5
DICPCG:  Solving for p, Initial residual = 0.0109856, Final residual = 0.000451127, No Iterations 29
time step continuity errors : sum local = 1.3187e-07, global = -1.38245e-08, cumulative = -6.62458e-06
DICPCG:  Solving for p, Initial residual = 0.00660374, Final residual = 9.09423e-07, No Iterations 85
time step continuity errors : sum local = 2.65563e-10, global = 4.294e-12, cumulative = -6.62457e-06
ExecutionTime = 0.96 s  ClockTime = 1 s

Time = 1.9

Courant Number mean: 0.177895 max: 1.35502
smoothSolver:  Solving for Ux, Initial residual = 0.00244296, Final residual = 4.86866e-06, No Iterations 4
smoothSolver:  Solving for Uy, Initial residual = 0.00672906, Final residual = 6.24779e-06, No Iterations 5
DICPCG:  Solving for p, Initial residual = 0.0106571, Final residual = 0.000430216, No Iterations 29
time step continuity errors : sum local = 1.25996e-07, global = -1.3142e-08, cumulative = -6.63771e-06
DICPCG:  Solving for p, Initial residual = 0.00637572, Final residual = 8.64488e-07, No Iterations 85
time step continuity errors : sum local = 2.52911e-10, global = 4.5065e-12, cumulative = -6.63771e-06
ExecutionTime = 0.98 s  ClockTime = 1 s

Time = 1.95

Courant Number mean: 0.177967 max: 1.35648
smoothSolver:  Solving for Ux, Initial residual = 0.00241201, Final residual = 4.61004e-06, No Iterations 4
smoothSolver:  Solving for Uy, Initial residual = 0.00664458, Final residual = 6.02402e-06, No Iterations 5
DICPCG:  Solving for p, Initial residual = 0.010354, Final residual = 0.000511996, No Iterations 28
time step continuity errors : sum local = 1.50209e-07, global = -1.41261e-08, cumulative = -6.65184e-06
DICPCG:  Solving for p, Initial residual = 0.00619764, Final residual = 8.16504e-07, No Iterations 85
time step continuity errors : sum local = 2.39287e-10, global = 4.5899e-12, cumulative = -6.65183e-06
ExecutionTime = 1 s  ClockTime = 1 s

Time = 2

Courant Number mean: 0.178037 max: 1.35791
smoothSolver:  Solving for Ux, Initial residual = 0.00238213, Final residual = 4.37136e-06, No Iterations 4
smoothSolver:  Solving for Uy, Initial residual = 0.00656874, Final residual = 5.81688e-06, No Iterations 5
DICPCG:  Solving for p, Initial residual = 0.010066, Final residual = 0.000500866, No Iterations 28
time step continuity errors : sum local = 1.47177e-07, global = -1.34724e-08, cumulative = -6.6653e-06
DICPCG:  Solving for p, Initial residual = 0.00599489, Final residual = 9.47161e-07, No Iterations 84
time step continuity errors : sum local = 2.78032e-10, global = 3.19995e-12, cumulative = -6.6653e-06
ExecutionTime = 1.05 s  ClockTime = 1 s

Time = 2.05

Courant Number mean: 0.178108 max: 1.35933
smoothSolver:  Solving for Ux, Initial residual = 0.00235337, Final residual = 4.14865e-06, No Iterations 4
smoothSolver:  Solving for Uy, Initial residual = 0.00650119, Final residual = 5.62615e-06, No Iterations 5
DICPCG:  Solving for p, Initial residual = 0.0097792, Final residual = 0.000483624, No Iterations 28
time step continuity errors : sum local = 1.42332e-07, global = -1.27667e-08, cumulative = -6.67807e-06
DICPCG:  Solving for p, Initial residual = 0.00579419, Final residual = 9.79089e-07, No Iterations 83
time step continuity errors : sum local = 2.87863e-10, global = 3.89157e-12, cumulative = -6.67806e-06
ExecutionTime = 1.07 s  ClockTime = 1 s

Time = 2.1

Courant Number mean: 0.178176 max: 1.36072
smoothSolver:  Solving for Ux, Initial residual = 0.00232589, Final residual = 3.94127e-06, No Iterations 4
smoothSolver:  Solving for Uy, Initial residual = 0.0064346, Final residual = 5.45048e-06, No Iterations 5
DICPCG:  Solving for p, Initial residual = 0.00949687, Final residual = 0.000466476, No Iterations 28
time step continuity errors : sum local = 1.37484e-07, global = -1.20715e-08, cumulative = -6.69013e-06
DICPCG:  Solving for p, Initial residual = 0.00559685, Final residual = 8.89602e-07, No Iterations 83
time step continuity errors : sum local = 2.61944e-10, global = 3.37308e-12, cumulative = -6.69013e-06
ExecutionTime = 1.09 s  ClockTime = 1 s

Time = 2.15

Courant Number mean: 0.178245 max: 1.36283
smoothSolver:  Solving for Ux, Initial residual = 0.00229909, Final residual = 3.74772e-06, No Iterations 4
smoothSolver:  Solving for Uy, Initial residual = 0.00636761, Final residual = 5.28842e-06, No Iterations 5
DICPCG:  Solving for p, Initial residual = 0.00922208, Final residual = 0.000450279, No Iterations 28
time step continuity errors : sum local = 1.32879e-07, global = -1.13781e-08, cumulative = -6.70151e-06
DICPCG:  Solving for p, Initial residual = 0.00540846, Final residual = 9.6408e-07, No Iterations 82
time step continuity errors : sum local = 2.84217e-10, global = 5.33229e-12, cumulative = -6.7015e-06
ExecutionTime = 1.11 s  ClockTime = 1 s

Time = 2.2

Courant Number mean: 0.178313 max: 1.36505
smoothSolver:  Solving for Ux, Initial residual = 0.00227324, Final residual = 9.81962e-06, No Iterations 3
smoothSolver:  Solving for Uy, Initial residual = 0.00629839, Final residual = 5.1405e-06, No Iterations 5
DICPCG:  Solving for p, Initial residual = 0.00916789, Final residual = 0.000409554, No Iterations 28
time step continuity errors : sum local = 1.2099e-07, global = -4.60754e-09, cumulative = -6.70611e-06
DICPCG:  Solving for p, Initial residual = 0.00536371, Final residual = 8.04888e-07, No Iterations 84
time step continuity errors : sum local = 2.37552e-10, global = -2.63921e-12, cumulative = -6.70611e-06
ExecutionTime = 1.12 s  ClockTime = 1 s

Time = 2.25

Courant Number mean: 0.178379 max: 1.36723
smoothSolver:  Solving for Ux, Initial residual = 0.00224773, Final residual = 9.44328e-06, No Iterations 3
smoothSolver:  Solving for Uy, Initial residual = 0.00623222, Final residual = 4.99982e-06, No Iterations 5
DICPCG:  Solving for p, Initial residual = 0.00876233, Final residual = 0.000390756, No Iterations 28
time step continuity errors : sum local = 1.15543e-07, global = -7.74739e-09, cumulative = -6.71386e-06
DICPCG:  Solving for p, Initial residual = 0.00509328, Final residual = 7.86171e-07, No Iterations 84
time step continuity errors : sum local = 2.32247e-10, global = -1.68097e-12, cumulative = -6.71386e-06
ExecutionTime = 1.17 s  ClockTime = 1 s

Time = 2.3

Courant Number mean: 0.178443 max: 1.36938
smoothSolver:  Solving for Ux, Initial residual = 0.00222364, Final residual = 9.04134e-06, No Iterations 3
smoothSolver:  Solving for Uy, Initial residual = 0.00616963, Final residual = 4.87607e-06, No Iterations 5
DICPCG:  Solving for p, Initial residual = 0.00853301, Final residual = 0.00037514, No Iterations 28
time step continuity errors : sum local = 1.10971e-07, global = -5.79121e-09, cumulative = -6.71965e-06
DICPCG:  Solving for p, Initial residual = 0.00491901, Final residual = 8.08353e-07, No Iterations 84
time step continuity errors : sum local = 2.3891e-10, global = -1.56768e-12, cumulative = -6.71966e-06
ExecutionTime = 1.22 s  ClockTime = 1 s

Time = 2.35

Courant Number mean: 0.178508 max: 1.37149
smoothSolver:  Solving for Ux, Initial residual = 0.00220072, Final residual = 8.6696e-06, No Iterations 3
smoothSolver:  Solving for Uy, Initial residual = 0.00610827, Final residual = 4.76246e-06, No Iterations 5
DICPCG:  Solving for p, Initial residual = 0.00832098, Final residual = 0.000362343, No Iterations 28
time step continuity errors : sum local = 1.07284e-07, global = -5.67426e-09, cumulative = -6.72533e-06
DICPCG:  Solving for p, Initial residual = 0.00476273, Final residual = 8.19697e-07, No Iterations 84
time step continuity errors : sum local = 2.42563e-10, global = -1.21827e-12, cumulative = -6.72533e-06
ExecutionTime = 1.24 s  ClockTime = 1 s

Time = 2.4

Courant Number mean: 0.178569 max: 1.37358
smoothSolver:  Solving for Ux, Initial residual = 0.00217874, Final residual = 8.31641e-06, No Iterations 3
smoothSolver:  Solving for Uy, Initial residual = 0.00605063, Final residual = 4.65814e-06, No Iterations 5
DICPCG:  Solving for p, Initial residual = 0.00812928, Final residual = 0.000349495, No Iterations 28
time step continuity errors : sum local = 1.03592e-07, global = -5.09905e-09, cumulative = -6.73043e-06
DICPCG:  Solving for p, Initial residual = 0.00461429, Final residual = 8.28173e-07, No Iterations 84
time step continuity errors : sum local = 2.45338e-10, global = -9.68861e-13, cumulative = -6.73043e-06
ExecutionTime = 1.25 s  ClockTime = 1 s

Time = 2.45

Courant Number mean: 0.178629 max: 1.37565
smoothSolver:  Solving for Ux, Initial residual = 0.00215754, Final residual = 7.98241e-06, No Iterations 3
smoothSolver:  Solving for Uy, Initial residual = 0.00599604, Final residual = 4.56256e-06, No Iterations 5
DICPCG:  Solving for p, Initial residual = 0.00794335, Final residual = 0.000336779, No Iterations 28
time step continuity errors : sum local = 9.99256e-08, global = -4.6896e-09, cumulative = -6.73512e-06
DICPCG:  Solving for p, Initial residual = 0.00447421, Final residual = 8.30907e-07, No Iterations 84
time step continuity errors : sum local = 2.464e-10, global = -7.34695e-13, cumulative = -6.73512e-06
ExecutionTime = 1.27 s  ClockTime = 1 s

Time = 2.5

Courant Number mean: 0.17869 max: 1.37769
smoothSolver:  Solving for Ux, Initial residual = 0.00213676, Final residual = 7.66626e-06, No Iterations 3
smoothSolver:  Solving for Uy, Initial residual = 0.005948, Final residual = 4.47393e-06, No Iterations 5
DICPCG:  Solving for p, Initial residual = 0.00775481, Final residual = 0.000324059, No Iterations 28
time step continuity errors : sum local = 9.62562e-08, global = -4.26717e-09, cumulative = -6.73939e-06
DICPCG:  Solving for p, Initial residual = 0.00433893, Final residual = 8.28437e-07, No Iterations 84
time step continuity errors : sum local = 2.4599e-10, global = -5.35543e-13, cumulative = -6.73939e-06
ExecutionTime = 1.31 s  ClockTime = 1 s

Time = 2.55

Courant Number mean: 0.178751 max: 1.37971
smoothSolver:  Solving for Ux, Initial residual = 0.0021163, Final residual = 7.36598e-06, No Iterations 3
smoothSolver:  Solving for Uy, Initial residual = 0.00590049, Final residual = 4.39113e-06, No Iterations 5
DICPCG:  Solving for p, Initial residual = 0.00757267, Final residual = 0.000312093, No Iterations 28
time step continuity errors : sum local = 9.28305e-08, global = -3.88362e-09, cumulative = -6.74327e-06
DICPCG:  Solving for p, Initial residual = 0.004208, Final residual = 8.22973e-07, No Iterations 84
time step continuity errors : sum local = 2.44717e-10, global = -3.5952e-13, cumulative = -6.74327e-06
ExecutionTime = 1.33 s  ClockTime = 1 s

Time = 2.6

Courant Number mean: 0.178812 max: 1.38171
smoothSolver:  Solving for Ux, Initial residual = 0.00209692, Final residual = 7.08094e-06, No Iterations 3
smoothSolver:  Solving for Uy, Initial residual = 0.00585184, Final residual = 9.8563e-06, No Iterations 4
DICPCG:  Solving for p, Initial residual = 0.00739446, Final residual = 0.00030423, No Iterations 28
time step continuity errors : sum local = 9.06156e-08, global = -3.5645e-09, cumulative = -6.74684e-06
DICPCG:  Solving for p, Initial residual = 0.00409165, Final residual = 7.65475e-07, No Iterations 84
time step continuity errors : sum local = 2.27938e-10, global = -5.01188e-13, cumulative = -6.74684e-06
ExecutionTime = 1.35 s  ClockTime = 1 s

Time = 2.65

Courant Number mean: 0.17887 max: 1.38369
smoothSolver:  Solving for Ux, Initial residual = 0.00207832, Final residual = 6.81053e-06, No Iterations 3
smoothSolver:  Solving for Uy, Initial residual = 0.00580416, Final residual = 9.73438e-06, No Iterations 4
DICPCG:  Solving for p, Initial residual = 0.00723177, Final residual = 0.000293435, No Iterations 28
time step continuity errors : sum local = 8.75149e-08, global = -3.36899e-09, cumulative = -6.75021e-06
DICPCG:  Solving for p, Initial residual = 0.0039789, Final residual = 7.53497e-07, No Iterations 84
time step continuity errors : sum local = 2.24642e-10, global = -3.99828e-13, cumulative = -6.75021e-06
ExecutionTime = 1.36 s  ClockTime = 1 s

Time = 2.7

Courant Number mean: 0.178927 max: 1.38565
smoothSolver:  Solving for Ux, Initial residual = 0.00205966, Final residual = 6.55304e-06, No Iterations 3
smoothSolver:  Solving for Uy, Initial residual = 0.00575935, Final residual = 9.59094e-06, No Iterations 4
DICPCG:  Solving for p, Initial residual = 0.00706186, Final residual = 0.000350752, No Iterations 27
time step continuity errors : sum local = 1.0472e-07, global = -4.31115e-09, cumulative = -6.75452e-06
DICPCG:  Solving for p, Initial residual = 0.00388023, Final residual = 9.64158e-07, No Iterations 83
time step continuity errors : sum local = 2.87733e-10, global = -1.51449e-12, cumulative = -6.75452e-06
ExecutionTime = 1.38 s  ClockTime = 1 s

Time = 2.75

Courant Number mean: 0.178983 max: 1.3876
smoothSolver:  Solving for Ux, Initial residual = 0.0020412, Final residual = 6.30775e-06, No Iterations 3
smoothSolver:  Solving for Uy, Initial residual = 0.00571397, Final residual = 9.45671e-06, No Iterations 4
DICPCG:  Solving for p, Initial residual = 0.00690613, Final residual = 0.000338515, No Iterations 27
time step continuity errors : sum local = 1.01153e-07, global = -3.91471e-09, cumulative = -6.75843e-06
DICPCG:  Solving for p, Initial residual = 0.00376408, Final residual = 9.84549e-07, No Iterations 83
time step continuity errors : sum local = 2.94054e-10, global = -1.43953e-12, cumulative = -6.75844e-06
ExecutionTime = 1.43 s  ClockTime = 2 s

Time = 2.8

Courant Number mean: 0.179038 max: 1.38953
smoothSolver:  Solving for Ux, Initial residual = 0.0020229, Final residual = 6.07365e-06, No Iterations 3
smoothSolver:  Solving for Uy, Initial residual = 0.0056699, Final residual = 9.33039e-06, No Iterations 4
DICPCG:  Solving for p, Initial residual = 0.00676593, Final residual = 0.000327426, No Iterations 27
time step continuity errors : sum local = 9.79058e-08, global = -3.60679e-09, cumulative = -6.76204e-06
DICPCG:  Solving for p, Initial residual = 0.00366083, Final residual = 9.58344e-07, No Iterations 83
time step continuity errors : sum local = 2.86399e-10, global = -1.19796e-12, cumulative = -6.76204e-06
ExecutionTime = 1.45 s  ClockTime = 2 s

Time = 2.85

Courant Number mean: 0.179091 max: 1.39145
smoothSolver:  Solving for Ux, Initial residual = 0.00200526, Final residual = 5.85048e-06, No Iterations 3
smoothSolver:  Solving for Uy, Initial residual = 0.00562684, Final residual = 9.20761e-06, No Iterations 4
DICPCG:  Solving for p, Initial residual = 0.00663849, Final residual = 0.000319797, No Iterations 27
time step continuity errors : sum local = 9.56708e-08, global = -3.34944e-09, cumulative = -6.76539e-06
DICPCG:  Solving for p, Initial residual = 0.00355907, Final residual = 9.31552e-07, No Iterations 83
time step continuity errors : sum local = 2.7851e-10, global = -9.88063e-13, cumulative = -6.76539e-06
ExecutionTime = 1.47 s  ClockTime = 2 s

Time = 2.9

Courant Number mean: 0.179142 max: 1.39335
smoothSolver:  Solving for Ux, Initial residual = 0.00198788, Final residual = 5.63702e-06, No Iterations 3
smoothSolver:  Solving for Uy, Initial residual = 0.00558538, Final residual = 9.0891e-06, No Iterations 4
DICPCG:  Solving for p, Initial residual = 0.00650995, Final residual = 0.000302077, No Iterations 27
time step continuity errors : sum local = 9.04027e-08, global = -3.00472e-09, cumulative = -6.7684e-06
DICPCG:  Solving for p, Initial residual = 0.00346512, Final residual = 8.6964e-07, No Iterations 83
time step continuity errors : sum local = 2.60093e-10, global = -6.22577e-13, cumulative = -6.7684e-06
ExecutionTime = 1.48 s  ClockTime = 2 s

Time = 2.95

Courant Number mean: 0.179192 max: 1.39523
smoothSolver:  Solving for Ux, Initial residual = 0.00197115, Final residual = 5.43345e-06, No Iterations 3
smoothSolver:  Solving for Uy, Initial residual = 0.0055481, Final residual = 8.97385e-06, No Iterations 4
DICPCG:  Solving for p, Initial residual = 0.00637639, Final residual = 0.000300647, No Iterations 27
time step continuity errors : sum local = 9.00039e-08, global = -2.86366e-09, cumulative = -6.77126e-06
DICPCG:  Solving for p, Initial residual = 0.00337836, Final residual = 8.84172e-07, No Iterations 83
time step continuity errors : sum local = 2.64521e-10, global = -6.02766e-13, cumulative = -6.77126e-06
ExecutionTime = 1.5 s  ClockTime = 2 s

Time = 3

Courant Number mean: 0.179242 max: 1.3971
smoothSolver:  Solving for Ux, Initial residual = 0.00195452, Final residual = 5.23877e-06, No Iterations 3
smoothSolver:  Solving for Uy, Initial residual = 0.00551482, Final residual = 8.86108e-06, No Iterations 4
DICPCG:  Solving for p, Initial residual = 0.00625823, Final residual = 0.000286147, No Iterations 27
time step continuity errors : sum local = 8.56819e-08, global = -2.52224e-09, cumulative = -6.77379e-06
DICPCG:  Solving for p, Initial residual = 0.00329632, Final residual = 8.61517e-07, No Iterations 83
time step continuity errors : sum local = 2.57783e-10, global = -4.05102e-13, cumulative = -6.77379e-06
ExecutionTime = 1.54 s  ClockTime = 2 s

Time = 3.05

Courant Number mean: 0.179291 max: 1.39895
smoothSolver:  Solving for Ux, Initial residual = 0.00193792, Final residual = 5.05237e-06, No Iterations 3
smoothSolver:  Solving for Uy, Initial residual = 0.00548014, Final residual = 8.74942e-06, No Iterations 4
DICPCG:  Solving for p, Initial residual = 0.00613943, Final residual = 0.000278228, No Iterations 27
time step continuity errors : sum local = 8.3329e-08, global = -2.39692e-09, cumulative = -6.77618e-06
DICPCG:  Solving for p, Initial residual = 0.00321169, Final residual = 8.31346e-07, No Iterations 83
time step continuity errors : sum local = 2.48829e-10, global = -2.50891e-13, cumulative = -6.77618e-06
ExecutionTime = 1.56 s  ClockTime = 2 s

Time = 3.1

Courant Number mean: 0.179339 max: 1.40079
smoothSolver:  Solving for Ux, Initial residual = 0.00192174, Final residual = 4.87419e-06, No Iterations 3
smoothSolver:  Solving for Uy, Initial residual = 0.00544539, Final residual = 8.63657e-06, No Iterations 4
DICPCG:  Solving for p, Initial residual = 0.00602138, Final residual = 0.000268508, No Iterations 27
time step continuity errors : sum local = 8.04359e-08, global = -2.14081e-09, cumulative = -6.77833e-06
DICPCG:  Solving for p, Initial residual = 0.00313952, Final residual = 8.05023e-07, No Iterations 83
time step continuity errors : sum local = 2.41001e-10, global = -1.14096e-13, cumulative = -6.77833e-06
ExecutionTime = 1.57 s  ClockTime = 2 s

Time = 3.15

Courant Number mean: 0.179385 max: 1.4026
smoothSolver:  Solving for Ux, Initial residual = 0.00190574, Final residual = 4.70364e-06, No Iterations 3
smoothSolver:  Solving for Uy, Initial residual = 0.00541156, Final residual = 8.52436e-06, No Iterations 4
DICPCG:  Solving for p, Initial residual = 0.00590499, Final residual = 0.000264075, No Iterations 27
time step continuity errors : sum local = 7.91183e-08, global = -2.04192e-09, cumulative = -6.78037e-06
DICPCG:  Solving for p, Initial residual = 0.00306621, Final residual = 7.67878e-07, No Iterations 83
time step continuity errors : sum local = 2.29896e-10, global = -2.36443e-14, cumulative = -6.78037e-06
ExecutionTime = 1.6 s  ClockTime = 2 s

Time = 3.2

Courant Number mean: 0.179428 max: 1.40439
smoothSolver:  Solving for Ux, Initial residual = 0.00189026, Final residual = 4.54036e-06, No Iterations 3
smoothSolver:  Solving for Uy, Initial residual = 0.00537567, Final residual = 8.41287e-06, No Iterations 4
DICPCG:  Solving for p, Initial residual = 0.00579251, Final residual = 0.000252785, No Iterations 27
time step continuity errors : sum local = 7.57354e-08, global = -1.83898e-09, cumulative = -6.78221e-06
DICPCG:  Solving for p, Initial residual = 0.00299816, Final residual = 7.16194e-07, No Iterations 83
time step continuity errors : sum local = 2.14418e-10, global = 1.18625e-13, cumulative = -6.78221e-06
ExecutionTime = 1.62 s  ClockTime = 2 s

Time = 3.25

Courant Number mean: 0.179471 max: 1.40616
smoothSolver:  Solving for Ux, Initial residual = 0.00187527, Final residual = 4.38412e-06, No Iterations 3
smoothSolver:  Solving for Uy, Initial residual = 0.00534017, Final residual = 8.30038e-06, No Iterations 4
DICPCG:  Solving for p, Initial residual = 0.00569362, Final residual = 0.000245421, No Iterations 27
time step continuity errors : sum local = 7.35261e-08, global = -1.67606e-09, cumulative = -6.78388e-06
DICPCG:  Solving for p, Initial residual = 0.00293282, Final residual = 9.77701e-07, No Iterations 82
time step continuity errors : sum local = 2.92694e-10, global = -1.33073e-12, cumulative = -6.78388e-06
ExecutionTime = 1.66 s  ClockTime = 2 s

Time = 3.3

Courant Number mean: 0.179512 max: 1.40791
smoothSolver:  Solving for Ux, Initial residual = 0.00186094, Final residual = 4.23483e-06, No Iterations 3
smoothSolver:  Solving for Uy, Initial residual = 0.00530466, Final residual = 8.18458e-06, No Iterations 4
DICPCG:  Solving for p, Initial residual = 0.00560726, Final residual = 0.000240555, No Iterations 27
time step continuity errors : sum local = 7.20599e-08, global = -1.53374e-09, cumulative = -6.78542e-06
DICPCG:  Solving for p, Initial residual = 0.00287146, Final residual = 9.55461e-07, No Iterations 82
time step continuity errors : sum local = 2.85988e-10, global = -1.48932e-12, cumulative = -6.78542e-06
ExecutionTime = 1.67 s  ClockTime = 2 s

Time = 3.35

Courant Number mean: 0.179552 max: 1.40963
smoothSolver:  Solving for Ux, Initial residual = 0.00184694, Final residual = 4.09219e-06, No Iterations 3
smoothSolver:  Solving for Uy, Initial residual = 0.00527021, Final residual = 8.06694e-06, No Iterations 4
DICPCG:  Solving for p, Initial residual = 0.00552093, Final residual = 0.00023563, No Iterations 27
time step continuity errors : sum local = 7.05728e-08, global = -1.39141e-09, cumulative = -6.78681e-06
DICPCG:  Solving for p, Initial residual = 0.00281246, Final residual = 9.13123e-07, No Iterations 82
time step continuity errors : sum local = 2.73277e-10, global = -1.47593e-12, cumulative = -6.78681e-06
ExecutionTime = 1.69 s  ClockTime = 2 s

Time = 3.4

Courant Number mean: 0.17959 max: 1.41132
smoothSolver:  Solving for Ux, Initial residual = 0.00183282, Final residual = 3.95596e-06, No Iterations 3
smoothSolver:  Solving for Uy, Initial residual = 0.00523806, Final residual = 7.94816e-06, No Iterations 4
DICPCG:  Solving for p, Initial residual = 0.00543599, Final residual = 0.000229946, No Iterations 27
time step continuity errors : sum local = 6.88577e-08, global = -1.25492e-09, cumulative = -6.78807e-06
DICPCG:  Solving for p, Initial residual = 0.00275637, Final residual = 8.46631e-07, No Iterations 82
time step continuity errors : sum local = 2.53324e-10, global = -1.15475e-12, cumulative = -6.78807e-06
ExecutionTime = 1.71 s  ClockTime = 2 s

Time = 3.45

Courant Number mean: 0.179626 max: 1.41298
smoothSolver:  Solving for Ux, Initial residual = 0.00181861, Final residual = 3.82531e-06, No Iterations 3
smoothSolver:  Solving for Uy, Initial residual = 0.00521092, Final residual = 7.82859e-06, No Iterations 4
DICPCG:  Solving for p, Initial residual = 0.00535165, Final residual = 0.000223764, No Iterations 27
time step continuity errors : sum local = 6.69896e-08, global = -1.122e-09, cumulative = -6.78919e-06
DICPCG:  Solving for p, Initial residual = 0.00270385, Final residual = 8.3051e-07, No Iterations 82
time step continuity errors : sum local = 2.48435e-10, global = -1.47021e-12, cumulative = -6.78919e-06
ExecutionTime = 1.73 s  ClockTime = 2 s

Time = 3.5

Courant Number mean: 0.179662 max: 1.41461
smoothSolver:  Solving for Ux, Initial residual = 0.00180437, Final residual = 3.70091e-06, No Iterations 3
smoothSolver:  Solving for Uy, Initial residual = 0.00518459, Final residual = 7.7087e-06, No Iterations 4
DICPCG:  Solving for p, Initial residual = 0.00526861, Final residual = 0.000217402, No Iterations 27
time step continuity errors : sum local = 6.50629e-08, global = -9.94673e-10, cumulative = -6.79019e-06
DICPCG:  Solving for p, Initial residual = 0.00265543, Final residual = 7.91426e-07, No Iterations 82
time step continuity errors : sum local = 2.36651e-10, global = -1.49887e-12, cumulative = -6.79019e-06
ExecutionTime = 1.77 s  ClockTime = 2 s

Time = 3.55

Courant Number mean: 0.179697 max: 1.4162
smoothSolver:  Solving for Ux, Initial residual = 0.00179032, Final residual = 3.58217e-06, No Iterations 3
smoothSolver:  Solving for Uy, Initial residual = 0.0051581, Final residual = 7.58398e-06, No Iterations 4
DICPCG:  Solving for p, Initial residual = 0.00518482, Final residual = 0.000211404, No Iterations 27
time step continuity errors : sum local = 6.32402e-08, global = -8.74026e-10, cumulative = -6.79106e-06
DICPCG:  Solving for p, Initial residual = 0.00260963, Final residual = 9.74552e-07, No Iterations 81
time step continuity errors : sum local = 2.91271e-10, global = -4.48271e-12, cumulative = -6.79107e-06
ExecutionTime = 1.8 s  ClockTime = 2 s

Time = 3.6

Courant Number mean: 0.17973 max: 1.41776
smoothSolver:  Solving for Ux, Initial residual = 0.00177713, Final residual = 3.46883e-06, No Iterations 3
smoothSolver:  Solving for Uy, Initial residual = 0.00513149, Final residual = 7.45402e-06, No Iterations 4
DICPCG:  Solving for p, Initial residual = 0.00510462, Final residual = 0.000205441, No Iterations 27
time step continuity errors : sum local = 6.14293e-08, global = -7.62111e-10, cumulative = -6.79183e-06
DICPCG:  Solving for p, Initial residual = 0.00256371, Final residual = 9.49822e-07, No Iterations 81
time step continuity errors : sum local = 2.83764e-10, global = -4.66746e-12, cumulative = -6.79183e-06
ExecutionTime = 1.81 s  ClockTime = 2 s

Time = 3.65

Courant Number mean: 0.179762 max: 1.41928
smoothSolver:  Solving for Ux, Initial residual = 0.0017641, Final residual = 3.36053e-06, No Iterations 3
smoothSolver:  Solving for Uy, Initial residual = 0.00510369, Final residual = 7.31951e-06, No Iterations 4
DICPCG:  Solving for p, Initial residual = 0.00502488, Final residual = 0.000199245, No Iterations 27
time step continuity errors : sum local = 5.95522e-08, global = -6.57715e-10, cumulative = -6.79249e-06
DICPCG:  Solving for p, Initial residual = 0.00251907, Final residual = 9.16715e-07, No Iterations 81
time step continuity errors : sum local = 2.73772e-10, global = -4.39298e-12, cumulative = -6.79249e-06
ExecutionTime = 1.83 s  ClockTime = 2 s

Time = 3.7

Courant Number mean: 0.179793 max: 1.42076
smoothSolver:  Solving for Ux, Initial residual = 0.00175101, Final residual = 3.25671e-06, No Iterations 3
smoothSolver:  Solving for Uy, Initial residual = 0.0050752, Final residual = 7.18031e-06, No Iterations 4
DICPCG:  Solving for p, Initial residual = 0.0049439, Final residual = 0.000192938, No Iterations 27
time step continuity errors : sum local = 5.7643e-08, global = -5.62024e-10, cumulative = -6.79306e-06
DICPCG:  Solving for p, Initial residual = 0.00247685, Final residual = 8.85332e-07, No Iterations 81
time step continuity errors : sum local = 2.64281e-10, global = -4.10398e-12, cumulative = -6.79306e-06
ExecutionTime = 1.84 s  ClockTime = 2 s

Time = 3.75

Courant Number mean: 0.179822 max: 1.4222
smoothSolver:  Solving for Ux, Initial residual = 0.00173794, Final residual = 3.15785e-06, No Iterations 3
smoothSolver:  Solving for Uy, Initial residual = 0.00504595, Final residual = 7.03687e-06, No Iterations 4
DICPCG:  Solving for p, Initial residual = 0.00487177, Final residual = 0.000186073, No Iterations 27
time step continuity errors : sum local = 5.55667e-08, global = -4.72405e-10, cumulative = -6.79353e-06
DICPCG:  Solving for p, Initial residual = 0.00243579, Final residual = 8.5416e-07, No Iterations 81
time step continuity errors : sum local = 2.5486e-10, global = -3.82927e-12, cumulative = -6.79354e-06
ExecutionTime = 1.88 s  ClockTime = 2 s

Time = 3.8

Courant Number mean: 0.17985 max: 1.4236
smoothSolver:  Solving for Ux, Initial residual = 0.00172496, Final residual = 3.0643e-06, No Iterations 3
smoothSolver:  Solving for Uy, Initial residual = 0.00501746, Final residual = 6.8891e-06, No Iterations 4
DICPCG:  Solving for p, Initial residual = 0.00479654, Final residual = 0.000179182, No Iterations 27
time step continuity errors : sum local = 5.34819e-08, global = -3.86277e-10, cumulative = -6.79392e-06
DICPCG:  Solving for p, Initial residual = 0.00239454, Final residual = 8.20193e-07, No Iterations 81
time step continuity errors : sum local = 2.44596e-10, global = -3.60916e-12, cumulative = -6.79393e-06
ExecutionTime = 1.9 s  ClockTime = 2 s

Time = 3.85

Courant Number mean: 0.179877 max: 1.42494
smoothSolver:  Solving for Ux, Initial residual = 0.00171196, Final residual = 2.97491e-06, No Iterations 3
smoothSolver:  Solving for Uy, Initial residual = 0.00498952, Final residual = 6.73732e-06, No Iterations 4
DICPCG:  Solving for p, Initial residual = 0.00472131, Final residual = 0.000234625, No Iterations 26
time step continuity errors : sum local = 6.9994e-08, global = -1.34332e-09, cumulative = -6.79527e-06
DICPCG:  Solving for p, Initial residual = 0.00237146, Final residual = 7.84044e-07, No Iterations 81
time step continuity errors : sum local = 2.3371e-10, global = -3.40835e-12, cumulative = -6.79527e-06
ExecutionTime = 1.93 s  ClockTime = 2 s

Time = 3.9

Courant Number mean: 0.179903 max: 1.42625
smoothSolver:  Solving for Ux, Initial residual = 0.00169934, Final residual = 2.89158e-06, No Iterations 3
smoothSolver:  Solving for Uy, Initial residual = 0.00496441, Final residual = 6.58196e-06, No Iterations 4
DICPCG:  Solving for p, Initial residual = 0.00463773, Final residual = 0.000225497, No Iterations 25
time step continuity errors : sum local = 6.72438e-08, global = -1.66806e-09, cumulative = -6.79694e-06
DICPCG:  Solving for p, Initial residual = 0.0023253, Final residual = 9.62012e-07, No Iterations 80
time step continuity errors : sum local = 2.86653e-10, global = -4.40754e-12, cumulative = -6.79695e-06
ExecutionTime = 1.94 s  ClockTime = 2 s

Time = 3.95

Courant Number mean: 0.179927 max: 1.4275
smoothSolver:  Solving for Ux, Initial residual = 0.00168772, Final residual = 2.81296e-06, No Iterations 3
smoothSolver:  Solving for Uy, Initial residual = 0.00494282, Final residual = 6.42379e-06, No Iterations 4
DICPCG:  Solving for p, Initial residual = 0.00456916, Final residual = 0.000223053, No Iterations 24
time step continuity errors : sum local = 6.6489e-08, global = -1.20947e-09, cumulative = -6.79816e-06
DICPCG:  Solving for p, Initial residual = 0.00228605, Final residual = 8.75045e-07, No Iterations 80
time step continuity errors : sum local = 2.60633e-10, global = -4.02437e-12, cumulative = -6.79816e-06
ExecutionTime = 1.96 s  ClockTime = 2 s

Time = 4

Courant Number mean: 0.17995 max: 1.42871
smoothSolver:  Solving for Ux, Initial residual = 0.0016767, Final residual = 2.73907e-06, No Iterations 3
smoothSolver:  Solving for Uy, Initial residual = 0.00492124, Final residual = 6.26394e-06, No Iterations 4
DICPCG:  Solving for p, Initial residual = 0.00451112, Final residual = 0.000206281, No Iterations 24
time step continuity errors : sum local = 6.14607e-08, global = -7.67985e-10, cumulative = -6.79893e-06
DICPCG:  Solving for p, Initial residual = 0.00224782, Final residual = 9.35307e-07, No Iterations 79
time step continuity errors : sum local = 2.78446e-10, global = -3.07559e-12, cumulative = -6.79893e-06
ExecutionTime = 2 s  ClockTime = 2 s

Time = 4.05

Courant Number mean: 0.179973 max: 1.42987
smoothSolver:  Solving for Ux, Initial residual = 0.00166563, Final residual = 2.67054e-06, No Iterations 3
smoothSolver:  Solving for Uy, Initial residual = 0.00489837, Final residual = 6.09971e-06, No Iterations 4
DICPCG:  Solving for p, Initial residual = 0.00445165, Final residual = 0.000209873, No Iterations 21
time step continuity errors : sum local = 6.24974e-08, global = 2.03572e-09, cumulative = -6.79689e-06
DICPCG:  Solving for p, Initial residual = 0.00224092, Final residual = 8.33124e-07, No Iterations 79
time step continuity errors : sum local = 2.47881e-10, global = -2.25239e-12, cumulative = -6.7969e-06
ExecutionTime = 2.01 s  ClockTime = 2 s

Time = 4.1

Courant Number mean: 0.179994 max: 1.43097
smoothSolver:  Solving for Ux, Initial residual = 0.00165451, Final residual = 2.60522e-06, No Iterations 3
smoothSolver:  Solving for Uy, Initial residual = 0.00487467, Final residual = 5.94088e-06, No Iterations 4
DICPCG:  Solving for p, Initial residual = 0.00442045, Final residual = 0.00018755, No Iterations 21
time step continuity errors : sum local = 5.58157e-08, global = 2.53066e-09, cumulative = -6.79437e-06
DICPCG:  Solving for p, Initial residual = 0.00222063, Final residual = 8.97088e-07, No Iterations 78
time step continuity errors : sum local = 2.66747e-10, global = -1.0097e-12, cumulative = -6.79437e-06
ExecutionTime = 2.04 s  ClockTime = 2 s

Time = 4.15

Courant Number mean: 0.180013 max: 1.43203
smoothSolver:  Solving for Ux, Initial residual = 0.00164342, Final residual = 2.5436e-06, No Iterations 3
smoothSolver:  Solving for Uy, Initial residual = 0.00484881, Final residual = 5.76888e-06, No Iterations 4
DICPCG:  Solving for p, Initial residual = 0.00435929, Final residual = 0.00017426, No Iterations 21
time step continuity errors : sum local = 5.18287e-08, global = 2.68987e-09, cumulative = -6.79168e-06
DICPCG:  Solving for p, Initial residual = 0.00218215, Final residual = 9.54833e-07, No Iterations 77
time step continuity errors : sum local = 2.83756e-10, global = 2.46944e-13, cumulative = -6.79168e-06
ExecutionTime = 2.05 s  ClockTime = 2 s

Time = 4.2

Courant Number mean: 0.180032 max: 1.43303
smoothSolver:  Solving for Ux, Initial residual = 0.00163236, Final residual = 2.48467e-06, No Iterations 3
smoothSolver:  Solving for Uy, Initial residual = 0.00482288, Final residual = 5.59509e-06, No Iterations 4
DICPCG:  Solving for p, Initial residual = 0.00430184, Final residual = 0.000201922, No Iterations 20
time step continuity errors : sum local = 6.00238e-08, global = 4.09182e-09, cumulative = -6.78759e-06
DICPCG:  Solving for p, Initial residual = 0.00216085, Final residual = 9.36826e-07, No Iterations 77
time step continuity errors : sum local = 2.78274e-10, global = 6.49509e-13, cumulative = -6.78758e-06
ExecutionTime = 2.06 s  ClockTime = 2 s

Time = 4.25

Courant Number mean: 0.18005 max: 1.43399
smoothSolver:  Solving for Ux, Initial residual = 0.0016216, Final residual = 2.4292e-06, No Iterations 3
smoothSolver:  Solving for Uy, Initial residual = 0.00479531, Final residual = 5.419e-06, No Iterations 4
DICPCG:  Solving for p, Initial residual = 0.00425616, Final residual = 0.000190473, No Iterations 20
time step continuity errors : sum local = 5.6594e-08, global = 4.31389e-09, cumulative = -6.78327e-06
DICPCG:  Solving for p, Initial residual = 0.00212722, Final residual = 9.40174e-07, No Iterations 77
time step continuity errors : sum local = 2.79141e-10, global = 8.90911e-13, cumulative = -6.78327e-06
ExecutionTime = 2.11 s  ClockTime = 2 s

Time = 4.3

Courant Number mean: 0.180066 max: 1.43489
smoothSolver:  Solving for Ux, Initial residual = 0.00161127, Final residual = 2.37713e-06, No Iterations 3
smoothSolver:  Solving for Uy, Initial residual = 0.00476709, Final residual = 5.23852e-06, No Iterations 4
DICPCG:  Solving for p, Initial residual = 0.00419983, Final residual = 0.000178417, No Iterations 20
time step continuity errors : sum local = 5.29869e-08, global = 4.40515e-09, cumulative = -6.77886e-06
DICPCG:  Solving for p, Initial residual = 0.00209245, Final residual = 9.59044e-07, No Iterations 77
time step continuity errors : sum local = 2.84615e-10, global = 9.42323e-13, cumulative = -6.77886e-06
ExecutionTime = 2.13 s  ClockTime = 2 s

Time = 4.35

Courant Number mean: 0.180084 max: 1.43574
smoothSolver:  Solving for Ux, Initial residual = 0.00160126, Final residual = 2.32847e-06, No Iterations 3
smoothSolver:  Solving for Uy, Initial residual = 0.00473875, Final residual = 5.05674e-06, No Iterations 4
DICPCG:  Solving for p, Initial residual = 0.00414563, Final residual = 0.00020518, No Iterations 19
time step continuity errors : sum local = 6.09055e-08, global = 5.38507e-09, cumulative = -6.77348e-06
DICPCG:  Solving for p, Initial residual = 0.00208697, Final residual = 9.9333e-07, No Iterations 77
time step continuity errors : sum local = 2.94641e-10, global = 9.65782e-13, cumulative = -6.77348e-06
ExecutionTime = 2.14 s  ClockTime = 2 s

Time = 4.4

Courant Number mean: 0.180099 max: 1.43653
smoothSolver:  Solving for Ux, Initial residual = 0.00159116, Final residual = 2.28316e-06, No Iterations 3
smoothSolver:  Solving for Uy, Initial residual = 0.00471245, Final residual = 4.87512e-06, No Iterations 4
DICPCG:  Solving for p, Initial residual = 0.00410181, Final residual = 0.000192759, No Iterations 19
time step continuity errors : sum local = 5.71881e-08, global = 5.44377e-09, cumulative = -6.76803e-06
DICPCG:  Solving for p, Initial residual = 0.00205397, Final residual = 9.63473e-07, No Iterations 78
time step continuity errors : sum local = 2.85634e-10, global = -1.49975e-13, cumulative = -6.76803e-06
ExecutionTime = 2.16 s  ClockTime = 2 s

Time = 4.45

Courant Number mean: 0.180113 max: 1.43728
smoothSolver:  Solving for Ux, Initial residual = 0.00158109, Final residual = 2.24013e-06, No Iterations 3
smoothSolver:  Solving for Uy, Initial residual = 0.00468872, Final residual = 4.69101e-06, No Iterations 4
DICPCG:  Solving for p, Initial residual = 0.00404653, Final residual = 0.000185436, No Iterations 19
time step continuity errors : sum local = 5.49845e-08, global = 5.43974e-09, cumulative = -6.76259e-06
DICPCG:  Solving for p, Initial residual = 0.00202354, Final residual = 8.50184e-07, No Iterations 79
time step continuity errors : sum local = 2.51902e-10, global = -2.18877e-12, cumulative = -6.7626e-06
ExecutionTime = 2.18 s  ClockTime = 2 s

Time = 4.5

Courant Number mean: 0.180127 max: 1.43798
smoothSolver:  Solving for Ux, Initial residual = 0.00157135, Final residual = 2.19972e-06, No Iterations 3
smoothSolver:  Solving for Uy, Initial residual = 0.0046649, Final residual = 4.50756e-06, No Iterations 4
DICPCG:  Solving for p, Initial residual = 0.00399293, Final residual = 0.000177987, No Iterations 19
time step continuity errors : sum local = 5.27425e-08, global = 5.40882e-09, cumulative = -6.75719e-06
DICPCG:  Solving for p, Initial residual = 0.00199329, Final residual = 8.89258e-07, No Iterations 79
time step continuity errors : sum local = 2.63305e-10, global = -2.73105e-12, cumulative = -6.75719e-06
ExecutionTime = 2.22 s  ClockTime = 2 s

Time = 4.55

Courant Number mean: 0.18014 max: 1.43862
smoothSolver:  Solving for Ux, Initial residual = 0.00156175, Final residual = 2.1607e-06, No Iterations 3
smoothSolver:  Solving for Uy, Initial residual = 0.0046415, Final residual = 4.32478e-06, No Iterations 4
DICPCG:  Solving for p, Initial residual = 0.00394343, Final residual = 0.000172249, No Iterations 19
time step continuity errors : sum local = 5.10055e-08, global = 5.35778e-09, cumulative = -6.75183e-06
DICPCG:  Solving for p, Initial residual = 0.00196504, Final residual = 9.07895e-07, No Iterations 79
time step continuity errors : sum local = 2.6862e-10, global = -3.03714e-12, cumulative = -6.75184e-06
ExecutionTime = 2.24 s  ClockTime = 2 s

Time = 4.6

Courant Number mean: 0.180155 max: 1.43922
smoothSolver:  Solving for Ux, Initial residual = 0.00155236, Final residual = 2.12422e-06, No Iterations 3
smoothSolver:  Solving for Uy, Initial residual = 0.00461787, Final residual = 4.14264e-06, No Iterations 4
DICPCG:  Solving for p, Initial residual = 0.00389897, Final residual = 0.000167621, No Iterations 19
time step continuity errors : sum local = 4.95974e-08, global = 5.28744e-09, cumulative = -6.74655e-06
DICPCG:  Solving for p, Initial residual = 0.00193784, Final residual = 9.24101e-07, No Iterations 79
time step continuity errors : sum local = 2.7321e-10, global = -3.31609e-12, cumulative = -6.74655e-06
ExecutionTime = 2.25 s  ClockTime = 2 s

Time = 4.65

Courant Number mean: 0.180168 max: 1.43977
smoothSolver:  Solving for Ux, Initial residual = 0.00154325, Final residual = 2.08932e-06, No Iterations 3
smoothSolver:  Solving for Uy, Initial residual = 0.00459312, Final residual = 3.96089e-06, No Iterations 4
DICPCG:  Solving for p, Initial residual = 0.00385183, Final residual = 0.000164144, No Iterations 19
time step continuity errors : sum local = 4.85329e-08, global = 5.20048e-09, cumulative = -6.74135e-06
DICPCG:  Solving for p, Initial residual = 0.00191226, Final residual = 9.31274e-07, No Iterations 79
time step continuity errors : sum local = 2.75136e-10, global = -3.5235e-12, cumulative = -6.74135e-06
ExecutionTime = 2.28 s  ClockTime = 2 s

Time = 4.7

Courant Number mean: 0.180181 max: 1.44027
smoothSolver:  Solving for Ux, Initial residual = 0.00153469, Final residual = 2.05568e-06, No Iterations 3
smoothSolver:  Solving for Uy, Initial residual = 0.00456826, Final residual = 3.77984e-06, No Iterations 4
DICPCG:  Solving for p, Initial residual = 0.00380766, Final residual = 0.000162139, No Iterations 19
time step continuity errors : sum local = 4.79045e-08, global = 5.09988e-09, cumulative = -6.73625e-06
[...]

        p

    Reconstructing volVectorFields

        U

    Reconstructing surfaceScalarFields

        phi

Reconstructing point fields

No point fields

No lagrangian fields

Time = 5.75

Reconstructing FV fields

    Reconstructing volScalarFields

        p

    Reconstructing volVectorFields

        U

    Reconstructing surfaceScalarFields

        phi

Reconstructing point fields

No point fields

No lagrangian fields

Time = 6

Reconstructing FV fields

    Reconstructing volScalarFields

        p

    Reconstructing volVectorFields

        U

    Reconstructing surfaceScalarFields

        phi

Reconstructing point fields

No point fields

No lagrangian fields

Time = 6.25

Reconstructing FV fields

    Reconstructing volScalarFields

        p

    Reconstructing volVectorFields

        U

    Reconstructing surfaceScalarFields

        phi

Reconstructing point fields

No point fields

No lagrangian fields

Time = 6.5

Reconstructing FV fields

    Reconstructing volScalarFields

        p

    Reconstructing volVectorFields

        U

    Reconstructing surfaceScalarFields

        phi

Reconstructing point fields

No point fields

No lagrangian fields

Time = 6.75

Reconstructing FV fields

    Reconstructing volScalarFields

        p

    Reconstructing volVectorFields

        U

    Reconstructing surfaceScalarFields

        phi

Reconstructing point fields

No point fields

No lagrangian fields

Time = 7

Reconstructing FV fields

    Reconstructing volScalarFields

        p

    Reconstructing volVectorFields

        U

    Reconstructing surfaceScalarFields

        phi

Reconstructing point fields

No point fields

No lagrangian fields

Time = 7.25

Reconstructing FV fields

    Reconstructing volScalarFields

        p

    Reconstructing volVectorFields

        U

    Reconstructing surfaceScalarFields

        phi

Reconstructing point fields

No point fields

No lagrangian fields

Time = 7.5

Reconstructing FV fields

    Reconstructing volScalarFields

        p

    Reconstructing volVectorFields

        U

    Reconstructing surfaceScalarFields

        phi

Reconstructing point fields

No point fields

No lagrangian fields

Time = 7.75

Reconstructing FV fields

    Reconstructing volScalarFields

        p

    Reconstructing volVectorFields

        U

    Reconstructing surfaceScalarFields

        phi

Reconstructing point fields

No point fields

No lagrangian fields

Time = 8

Reconstructing FV fields

    Reconstructing volScalarFields

        p

    Reconstructing volVectorFields

        U

    Reconstructing surfaceScalarFields

        phi

Reconstructing point fields

No point fields

No lagrangian fields

Time = 8.25

Reconstructing FV fields

    Reconstructing volScalarFields

        p

    Reconstructing volVectorFields

        U

    Reconstructing surfaceScalarFields

        phi

Reconstructing point fields

No point fields

No lagrangian fields

Time = 8.5

Reconstructing FV fields

    Reconstructing volScalarFields

        p

    Reconstructing volVectorFields

        U

    Reconstructing surfaceScalarFields

        phi

Reconstructing point fields

No point fields

No lagrangian fields

Time = 8.75

Reconstructing FV fields

    Reconstructing volScalarFields

        p

    Reconstructing volVectorFields

        U

    Reconstructing surfaceScalarFields

        phi

Reconstructing point fields

No point fields

No lagrangian fields

Time = 9

Reconstructing FV fields

    Reconstructing volScalarFields

        p

    Reconstructing volVectorFields

        U

    Reconstructing surfaceScalarFields

        phi

Reconstructing point fields

No point fields

No lagrangian fields

Time = 9.25

Reconstructing FV fields

    Reconstructing volScalarFields

        p

    Reconstructing volVectorFields

        U

    Reconstructing surfaceScalarFields

        phi

Reconstructing point fields

No point fields

No lagrangian fields

Time = 9.5

Reconstructing FV fields

    Reconstructing volScalarFields

        p

    Reconstructing volVectorFields

        U

    Reconstructing surfaceScalarFields

        phi

Reconstructing point fields

No point fields

No lagrangian fields

Time = 9.75

Reconstructing FV fields

    Reconstructing volScalarFields

        p

    Reconstructing volVectorFields

        U

    Reconstructing surfaceScalarFields

        phi

Reconstructing point fields

No point fields

No lagrangian fields

Time = 10

Reconstructing FV fields

    Reconstructing volScalarFields

        p

    Reconstructing volVectorFields

        U

    Reconstructing surfaceScalarFields

        phi

Reconstructing point fields

No point fields

No lagrangian fields

Time = 10.25

Reconstructing FV fields

    Reconstructing volScalarFields

        p

    Reconstructing volVectorFields

        U

    Reconstructing surfaceScalarFields

        phi

Reconstructing point fields

No point fields

No lagrangian fields

Time = 10.5

Reconstructing FV fields

    Reconstructing volScalarFields

        p

    Reconstructing volVectorFields

        U

    Reconstructing surfaceScalarFields

        phi

Reconstructing point fields

No point fields

No lagrangian fields

Time = 10.75

Reconstructing FV fields

    Reconstructing volScalarFields

        p

    Reconstructing volVectorFields

        U

    Reconstructing surfaceScalarFields

        phi

Reconstructing point fields

No point fields

No lagrangian fields

Time = 11

Reconstructing FV fields

    Reconstructing volScalarFields

        p

    Reconstructing volVectorFields

        U

    Reconstructing surfaceScalarFields

        phi

Reconstructing point fields

No point fields

No lagrangian fields

Time = 11.25

Reconstructing FV fields

    Reconstructing volScalarFields

        p

    Reconstructing volVectorFields

        U

    Reconstructing surfaceScalarFields

        phi

Reconstructing point fields

No point fields

No lagrangian fields

Time = 11.5

Reconstructing FV fields

    Reconstructing volScalarFields

        p

    Reconstructing volVectorFields

        U

    Reconstructing surfaceScalarFields

        phi

Reconstructing point fields

No point fields

No lagrangian fields

Time = 11.75

Reconstructing FV fields

    Reconstructing volScalarFields

        p

    Reconstructing volVectorFields

        U

    Reconstructing surfaceScalarFields

        phi

Reconstructing point fields

No point fields

No lagrangian fields

Time = 12

Reconstructing FV fields

    Reconstructing volScalarFields

        p

    Reconstructing volVectorFields

        U

    Reconstructing surfaceScalarFields

        phi

Reconstructing point fields

No point fields

No lagrangian fields

Time = 12.25

Reconstructing FV fields

    Reconstructing volScalarFields

        p

    Reconstructing volVectorFields

        U

    Reconstructing surfaceScalarFields

        phi

Reconstructing point fields

No point fields

No lagrangian fields

Time = 12.5

Reconstructing FV fields

    Reconstructing volScalarFields

        p

    Reconstructing volVectorFields

        U

    Reconstructing surfaceScalarFields

        phi

Reconstructing point fields

No point fields

No lagrangian fields

Time = 12.75

Reconstructing FV fields

    Reconstructing volScalarFields

        p

    Reconstructing volVectorFields

        U

    Reconstructing surfaceScalarFields

        phi

Reconstructing point fields

No point fields

No lagrangian fields

Time = 13

Reconstructing FV fields

    Reconstructing volScalarFields

        p

    Reconstructing volVectorFields

        U

    Reconstructing surfaceScalarFields

        phi

Reconstructing point fields

No point fields

No lagrangian fields

Time = 13.25

Reconstructing FV fields

    Reconstructing volScalarFields

        p

    Reconstructing volVectorFields

        U

    Reconstructing surfaceScalarFields

        phi

Reconstructing point fields

No point fields

No lagrangian fields

Time = 13.5

Reconstructing FV fields

    Reconstructing volScalarFields

        p

    Reconstructing volVectorFields

        U

    Reconstructing surfaceScalarFields

        phi

Reconstructing point fields

No point fields

No lagrangian fields

Time = 13.75

Reconstructing FV fields

    Reconstructing volScalarFields

        p

    Reconstructing volVectorFields

        U

    Reconstructing surfaceScalarFields

        phi

Reconstructing point fields

No point fields

No lagrangian fields

Time = 14

Reconstructing FV fields

    Reconstructing volScalarFields

        p

    Reconstructing volVectorFields

        U

    Reconstructing surfaceScalarFields

        phi

Reconstructing point fields

No point fields

No lagrangian fields

Time = 14.25

Reconstructing FV fields

    Reconstructing volScalarFields

        p

    Reconstructing volVectorFields

        U

    Reconstructing surfaceScalarFields

        phi

Reconstructing point fields

No point fields

No lagrangian fields

Time = 14.5

Reconstructing FV fields

    Reconstructing volScalarFields

        p

    Reconstructing volVectorFields

        U

    Reconstructing surfaceScalarFields

        phi

Reconstructing point fields

No point fields

No lagrangian fields

Time = 14.75

Reconstructing FV fields

    Reconstructing volScalarFields

        p

    Reconstructing volVectorFields

        U

    Reconstructing surfaceScalarFields

        phi

Reconstructing point fields

No point fields

No lagrangian fields

Time = 15

Reconstructing FV fields

    Reconstructing volScalarFields

        p

    Reconstructing volVectorFields

        U

    Reconstructing surfaceScalarFields

        phi

Reconstructing point fields

No point fields

No lagrangian fields

Time = 15.25

Reconstructing FV fields

    Reconstructing volScalarFields

        p

    Reconstructing volVectorFields

        U

    Reconstructing surfaceScalarFields

        phi

Reconstructing point fields

No point fields

No lagrangian fields

Time = 15.5

Reconstructing FV fields

    Reconstructing volScalarFields

        p

    Reconstructing volVectorFields

        U

    Reconstructing surfaceScalarFields

        phi

Reconstructing point fields

No point fields

No lagrangian fields

Time = 15.75

Reconstructing FV fields

    Reconstructing volScalarFields

        p

    Reconstructing volVectorFields

        U

    Reconstructing surfaceScalarFields

        phi

Reconstructing point fields

No point fields

No lagrangian fields

Time = 16

Reconstructing FV fields

    Reconstructing volScalarFields

        p

    Reconstructing volVectorFields

        U

    Reconstructing surfaceScalarFields

        phi

Reconstructing point fields

No point fields

No lagrangian fields

Time = 16.25

Reconstructing FV fields

    Reconstructing volScalarFields

        p

    Reconstructing volVectorFields

        U

    Reconstructing surfaceScalarFields

        phi

Reconstructing point fields

No point fields

No lagrangian fields

Time = 16.5

Reconstructing FV fields

    Reconstructing volScalarFields

        p

    Reconstructing volVectorFields

        U

    Reconstructing surfaceScalarFields

        phi

Reconstructing point fields

No point fields

No lagrangian fields

Time = 16.75

Reconstructing FV fields

    Reconstructing volScalarFields

        p

    Reconstructing volVectorFields

        U

    Reconstructing surfaceScalarFields

        phi

Reconstructing point fields

No point fields

No lagrangian fields

Time = 17

Reconstructing FV fields

    Reconstructing volScalarFields

        p

    Reconstructing volVectorFields

        U

    Reconstructing surfaceScalarFields

        phi

Reconstructing point fields

No point fields

No lagrangian fields

Time = 17.25

Reconstructing FV fields

    Reconstructing volScalarFields

        p

    Reconstructing volVectorFields

        U

    Reconstructing surfaceScalarFields

        phi

Reconstructing point fields

No point fields

No lagrangian fields

Time = 17.5

Reconstructing FV fields

    Reconstructing volScalarFields

        p

    Reconstructing volVectorFields

        U

    Reconstructing surfaceScalarFields

        phi

Reconstructing point fields

No point fields

No lagrangian fields

Time = 17.75

Reconstructing FV fields

    Reconstructing volScalarFields

        p

    Reconstructing volVectorFields

        U

    Reconstructing surfaceScalarFields

        phi

Reconstructing point fields

No point fields

No lagrangian fields

Time = 18

Reconstructing FV fields

    Reconstructing volScalarFields

        p

    Reconstructing volVectorFields

        U

    Reconstructing surfaceScalarFields

        phi

Reconstructing point fields

No point fields

No lagrangian fields

Time = 18.25

Reconstructing FV fields

    Reconstructing volScalarFields

        p

    Reconstructing volVectorFields

        U

    Reconstructing surfaceScalarFields

        phi

Reconstructing point fields

No point fields

No lagrangian fields

Time = 18.5

Reconstructing FV fields

    Reconstructing volScalarFields

        p

    Reconstructing volVectorFields

        U

    Reconstructing surfaceScalarFields

        phi

Reconstructing point fields

No point fields

No lagrangian fields

Time = 18.75

Reconstructing FV fields

    Reconstructing volScalarFields

        p

    Reconstructing volVectorFields

        U

    Reconstructing surfaceScalarFields

        phi

Reconstructing point fields

No point fields

No lagrangian fields

Time = 19

Reconstructing FV fields

    Reconstructing volScalarFields

        p

    Reconstructing volVectorFields

        U

    Reconstructing surfaceScalarFields

        phi

Reconstructing point fields

No point fields

No lagrangian fields

Time = 19.25

Reconstructing FV fields

    Reconstructing volScalarFields

        p

    Reconstructing volVectorFields

        U

    Reconstructing surfaceScalarFields

        phi

Reconstructing point fields

No point fields

No lagrangian fields

Time = 19.5

Reconstructing FV fields

    Reconstructing volScalarFields

        p

    Reconstructing volVectorFields

        U

    Reconstructing surfaceScalarFields

        phi

Reconstructing point fields

No point fields

No lagrangian fields

Time = 19.75

Reconstructing FV fields

    Reconstructing volScalarFields

        p

    Reconstructing volVectorFields

        U

    Reconstructing surfaceScalarFields

        phi

Reconstructing point fields

No point fields

No lagrangian fields

Time = 20

Reconstructing FV fields

    Reconstructing volScalarFields

        p

    Reconstructing volVectorFields

        U

    Reconstructing surfaceScalarFields

        phi

Reconstructing point fields

No point fields

No lagrangian fields

Time = 20.25

Reconstructing FV fields

    Reconstructing volScalarFields

        p

    Reconstructing volVectorFields

        U

    Reconstructing surfaceScalarFields

        phi

Reconstructing point fields

No point fields

No lagrangian fields

Time = 20.5

Reconstructing FV fields

    Reconstructing volScalarFields

        p

    Reconstructing volVectorFields

        U

    Reconstructing surfaceScalarFields

        phi

Reconstructing point fields

No point fields

No lagrangian fields

Time = 20.75

Reconstructing FV fields

    Reconstructing volScalarFields

        p

    Reconstructing volVectorFields

        U

    Reconstructing surfaceScalarFields

        phi

Reconstructing point fields

No point fields

No lagrangian fields

Time = 21

Reconstructing FV fields

    Reconstructing volScalarFields

        p

    Reconstructing volVectorFields

        U

    Reconstructing surfaceScalarFields

        phi

Reconstructing point fields

No point fields

No lagrangian fields

Time = 21.25

Reconstructing FV fields

    Reconstructing volScalarFields

        p

    Reconstructing volVectorFields

        U

    Reconstructing surfaceScalarFields

        phi

Reconstructing point fields

No point fields

No lagrangian fields

Time = 21.5

Reconstructing FV fields

    Reconstructing volScalarFields

        p

    Reconstructing volVectorFields

        U

    Reconstructing surfaceScalarFields

        phi

Reconstructing point fields

No point fields

No lagrangian fields

Time = 21.75

Reconstructing FV fields

    Reconstructing volScalarFields

        p

    Reconstructing volVectorFields

        U

    Reconstructing surfaceScalarFields

        phi

Reconstructing point fields

No point fields

No lagrangian fields

Time = 22

Reconstructing FV fields

    Reconstructing volScalarFields

        p

    Reconstructing volVectorFields

        U

    Reconstructing surfaceScalarFields

        phi

Reconstructing point fields

No point fields

No lagrangian fields

Time = 22.25

Reconstructing FV fields

    Reconstructing volScalarFields

        p

    Reconstructing volVectorFields

        U

    Reconstructing surfaceScalarFields

        phi

Reconstructing point fields

No point fields

No lagrangian fields

Time = 22.5

Reconstructing FV fields

    Reconstructing volScalarFields

        p

    Reconstructing volVectorFields

        U

    Reconstructing surfaceScalarFields

        phi

Reconstructing point fields

No point fields

No lagrangian fields

Time = 22.75

Reconstructing FV fields

    Reconstructing volScalarFields

        p

    Reconstructing volVectorFields

        U

    Reconstructing surfaceScalarFields

        phi

Reconstructing point fields

No point fields

No lagrangian fields

Time = 23

Reconstructing FV fields

    Reconstructing volScalarFields

        p

    Reconstructing volVectorFields

        U

    Reconstructing surfaceScalarFields

        phi

Reconstructing point fields

No point fields

No lagrangian fields

Time = 23.25

Reconstructing FV fields

    Reconstructing volScalarFields

        p

    Reconstructing volVectorFields

        U

    Reconstructing surfaceScalarFields

        phi

Reconstructing point fields

No point fields

No lagrangian fields

Time = 23.5

Reconstructing FV fields

    Reconstructing volScalarFields

        p

    Reconstructing volVectorFields

        U

    Reconstructing surfaceScalarFields

        phi

Reconstructing point fields

No point fields

No lagrangian fields

Time = 23.75

Reconstructing FV fields

    Reconstructing volScalarFields

        p

    Reconstructing volVectorFields

        U

    Reconstructing surfaceScalarFields

        phi

Reconstructing point fields

No point fields

No lagrangian fields

Time = 24

Reconstructing FV fields

    Reconstructing volScalarFields

        p

    Reconstructing volVectorFields

        U

    Reconstructing surfaceScalarFields

        phi

Reconstructing point fields

No point fields

No lagrangian fields

Time = 24.25

Reconstructing FV fields

    Reconstructing volScalarFields

        p

    Reconstructing volVectorFields

        U

    Reconstructing surfaceScalarFields

        phi

Reconstructing point fields

No point fields

No lagrangian fields

Time = 24.5

Reconstructing FV fields

    Reconstructing volScalarFields

        p

    Reconstructing volVectorFields

        U

    Reconstructing surfaceScalarFields

        phi

Reconstructing point fields

No point fields

No lagrangian fields

Time = 24.75

Reconstructing FV fields

    Reconstructing volScalarFields

        p

    Reconstructing volVectorFields

        U

    Reconstructing surfaceScalarFields

        phi

Reconstructing point fields

No point fields

No lagrangian fields

Time = 25

Reconstructing FV fields

    Reconstructing volScalarFields

        p

    Reconstructing volVectorFields

        U

    Reconstructing surfaceScalarFields

        phi

Reconstructing point fields

No point fields

No lagrangian fields


End

