/work/05113/danieler/stampede2/CFD-Final-Project/circular-cylinder-10-1
Wed May 13 09:26:17 CDT 2020
/*---------------------------------------------------------------------------*\
  =========                 |
  \\      /  F ield         | OpenFOAM: The Open Source CFD Toolbox
   \\    /   O peration     | Website:  https://openfoam.org
    \\  /    A nd           | Version:  6.0
     \\/     M anipulation  |
\*---------------------------------------------------------------------------*/
Build  : 6.0
Exec   : blockMesh
Date   : May 13 2020
Time   : 09:26:18
Host   : "c421-054.stampede2.tacc.utexas.edu"
PID    : 205301
I/O    : uncollated
Case   : /work/05113/danieler/stampede2/CFD-Final-Project/circular-cylinder-10-1
nProcs : 1
sigFpe : Enabling floating point exception trapping (FOAM_SIGFPE).
fileModificationChecking : Monitoring run-time modified files using timeStampMaster (fileModificationSkew 10)
allowSystemOperations : Allowing user-supplied system call operations

// * * * * * * * * * * * * * * * * * * * * * * * * * * * * * * * * * * * * * //
Create time

Deleting polyMesh directory
    "/work/05113/danieler/stampede2/CFD-Final-Project/circular-cylinder-10-1/constant/polyMesh"
Creating block mesh from
    "/work/05113/danieler/stampede2/CFD-Final-Project/circular-cylinder-10-1/system/blockMeshDict"
Creating block edges
No non-planar block faces defined
Creating topology blocks
Creating topology patches

Creating block mesh topology

Check topology

	Basic statistics
		Number of internal faces : 28
		Number of boundary faces : 64
		Number of defined boundary faces : 64
		Number of undefined boundary faces : 0
	Checking patch -> block consistency

Creating block offsets
Creating merge list .

Creating polyMesh from blockMesh
Creating points with scale 1
    Block 0 cell size :
        i : 0.05 .. 0.05
        j : 0.0392592 .. 0.0392592
        k : 1 .. 1

    Block 1 cell size :
        i : 0.0392592 .. 0.0392592
        j : 0.05 .. 0.05
        k : 1 .. 1

    Block 2 cell size :
        i : 0.0392592 .. 0.0392592
        j : 0.0499924 .. 0.0499924
        k : 1 .. 1

    Block 3 cell size :
        i : 0.05 .. 0.05
        j : 0.0785183 .. 0.0785183
        k : 1 .. 1

    Block 4 cell size :
        i : 0.0499924 .. 0.0499924
        j : 0.0785183 .. 0.0785183
        k : 1 .. 1

    Block 5 cell size :
        i : 0.0785183 .. 0.0785183
        j : 0.0499924 .. 0.0499924
        k : 1 .. 1

    Block 6 cell size :
        i : 0.0785183 .. 0.0785183
        j : 0.05 .. 0.05
        k : 1 .. 1

    Block 7 cell size :
        i : 0.0499924 .. 0.0499924
        j : 0.0392592 .. 0.0392592
        k : 1 .. 1

    Block 8 cell size :
        i : 0.26355 .. 1.0542
        j : 0.0785183 .. 0.0785183
        k : 1 .. 1

    Block 9 cell size :
        i : 0.270262 .. 1.08105
        j : 0.126864 .. 0.507457
        k : 1 .. 1

    Block 10 cell size :
        i : 0.0785183 .. 0.0785183
        j : 0.11356 .. 0.454238
        k : 1 .. 1

    Block 11 cell size :
        i : 0.0785183 .. 0.0785183
        j : 0.126864 .. 0.507457
        k : 1 .. 1

    Block 12 cell size :
        i : 0.27929 .. 0.27929
        j : 0.126864 .. 0.507457
        k : 1 .. 1

    Block 13 cell size :
        i : 0.25 .. 0.25
        j : 0.07071 .. 0.07071
        k : 1 .. 1

    Block 14 cell size :
        i : 0.27929 .. 0.27929
        j : 0.07071 .. 0.07071
        k : 1 .. 1

    Block 15 cell size :
        i : 0.27929 .. 0.27929
        j : 0.507457 .. 0.126864
        k : 1 .. 1

    Block 16 cell size :
        i : 0.07071 .. 0.07071
        j : 0.507457 .. 0.126864
        k : 1 .. 1

    Block 17 cell size :
        i : 0.07071 .. 0.07071
        j : 0.454238 .. 0.11356
        k : 1 .. 1

    Block 18 cell size :
        i : 0.270262 .. 1.08105
        j : 0.507457 .. 0.126864
        k : 1 .. 1

    Block 19 cell size :
        i : 0.270262 .. 1.08105
        j : 0.0785183 .. 0.0785183
        k : 1 .. 1

Creating cells
Creating patches

Writing polyMesh
----------------
Mesh Information
----------------
  boundingBox: (-3.5 -3.5 0) (12.5 3.5 1)
  nPoints: 5060
  nCells: 2400
  nFaces: 9730
  nInternalFaces: 4670
----------------
Patches
----------------
  patch 0 (start: 4670 size: 40) name: inlet
  patch 1 (start: 4710 size: 40) name: outlet
  patch 2 (start: 4750 size: 50) name: top
  patch 3 (start: 4800 size: 50) name: bottom
  patch 4 (start: 4850 size: 80) name: cylinder
  patch 5 (start: 4930 size: 4800) name: frontandback

End

/*---------------------------------------------------------------------------*\
  =========                 |
  \\      /  F ield         | OpenFOAM: The Open Source CFD Toolbox
   \\    /   O peration     | Website:  https://openfoam.org
    \\  /    A nd           | Version:  6.0
     \\/     M anipulation  |
\*---------------------------------------------------------------------------*/
Build  : 6.0
Exec   : checkMesh
Date   : May 13 2020
Time   : 09:26:20
Host   : "c421-054.stampede2.tacc.utexas.edu"
PID    : 205308
I/O    : uncollated
Case   : /work/05113/danieler/stampede2/CFD-Final-Project/circular-cylinder-10-1
nProcs : 1
sigFpe : Enabling floating point exception trapping (FOAM_SIGFPE).
fileModificationChecking : Monitoring run-time modified files using timeStampMaster (fileModificationSkew 10)
allowSystemOperations : Allowing user-supplied system call operations

// * * * * * * * * * * * * * * * * * * * * * * * * * * * * * * * * * * * * * //
Create time

Create polyMesh for time = 0

Time = 0

Mesh stats
    points:           5060
    internal points:  0
    faces:            9730
    internal faces:   4670
    cells:            2400
    faces per cell:   6
    boundary patches: 6
    point zones:      0
    face zones:       0
    cell zones:       0

Overall number of cells of each type:
    hexahedra:     2400
    prisms:        0
    wedges:        0
    pyramids:      0
    tet wedges:    0
    tetrahedra:    0
    polyhedra:     0

Checking topology...
    Boundary definition OK.
    Cell to face addressing OK.
    Point usage OK.
    Upper triangular ordering OK.
    Face vertices OK.
    Number of regions: 1 (OK).

Checking patch topology for multiply connected surfaces...
    Patch               Faces    Points   Surface topology                  
    inlet               40       82       ok (non-closed singly connected)  
    outlet              40       82       ok (non-closed singly connected)  
    top                 50       102      ok (non-closed singly connected)  
    bottom              50       102      ok (non-closed singly connected)  
    cylinder            80       160      ok (non-closed singly connected)  
    frontandback        4800     5060     ok (non-closed singly connected)  

Checking geometry...
    Overall domain bounding box (-3.5 -3.5 0) (12.5 3.5 1)
    Mesh has 2 geometric (non-empty/wedge) directions (1 1 0)
    Mesh has 2 solution (non-empty) directions (1 1 0)
    All edges aligned with or perpendicular to non-empty directions.
    Boundary openness (-1.63526e-18 9.40272e-18 -1.04237e-15) OK.
    Max cell openness = 2.18433e-16 OK.
    Max aspect ratio = 15.2885 OK.
    Minimum face area = 0.00205925. Maximum face area = 1.08105.  Face area magnitudes OK.
    Min volume = 0.00205925. Max volume = 0.548585.  Total volume = 111.215.  Cell volumes OK.
    Mesh non-orthogonality Max: 41.969 average: 11.2951
    Non-orthogonality check OK.
    Face pyramids OK.
    Max skewness = 0.47037 OK.
    Coupled point location match (average 0) OK.

Mesh OK.

End

/*---------------------------------------------------------------------------*\
  =========                 |
  \\      /  F ield         | OpenFOAM: The Open Source CFD Toolbox
   \\    /   O peration     | Website:  https://openfoam.org
    \\  /    A nd           | Version:  6.0
     \\/     M anipulation  |
\*---------------------------------------------------------------------------*/
Build  : 6.0
Exec   : decomposePar
Date   : May 13 2020
Time   : 09:26:21
Host   : "c421-054.stampede2.tacc.utexas.edu"
PID    : 205365
I/O    : uncollated
Case   : /work/05113/danieler/stampede2/CFD-Final-Project/circular-cylinder-10-1
nProcs : 1
sigFpe : Enabling floating point exception trapping (FOAM_SIGFPE).
fileModificationChecking : Monitoring run-time modified files using timeStampMaster (fileModificationSkew 10)
allowSystemOperations : Allowing user-supplied system call operations

// * * * * * * * * * * * * * * * * * * * * * * * * * * * * * * * * * * * * * //
Create time



Decomposing mesh region0

Create mesh

Calculating distribution of cells
Selecting decompositionMethod hierarchical

Finished decomposition in 0 s

Calculating original mesh data

Distributing cells to processors

Distributing faces to processors

Distributing points to processors

Constructing processor meshes

Processor 0
    Number of cells = 600
    Number of faces shared with processor 1 = 62
    Number of processor patches = 1
    Number of processor faces = 62
    Number of boundary faces = 1264

Processor 1
    Number of cells = 600
    Number of faces shared with processor 0 = 62
    Number of faces shared with processor 2 = 49
    Number of processor patches = 2
    Number of processor faces = 111
    Number of boundary faces = 1281

Processor 2
    Number of cells = 600
    Number of faces shared with processor 1 = 49
    Number of faces shared with processor 3 = 40
    Number of processor patches = 2
    Number of processor faces = 89
    Number of boundary faces = 1245

Processor 3
    Number of cells = 600
    Number of faces shared with processor 2 = 40
    Number of processor patches = 1
    Number of processor faces = 40
    Number of boundary faces = 1270

Number of processor faces = 151
Max number of cells = 600 (0% above average 600)
Max number of processor patches = 2 (33.3333% above average 1.5)
Max number of faces between processors = 111 (47.0199% above average 75.5)

Time = 0
--> FOAM Warning : 
    From function bool Foam::IOobject::readHeader(Foam::Istream &)
    in file db/IOobject/IOobjectReadHeader.C at line 88
    Reading "/work/05113/danieler/stampede2/CFD-Final-Project/circular-cylinder-10-1/0/log" at line 8
    First token could not be read or is not the keyword 'FoamFile'

Check header is of the form:

/*--------------------------------*- C++ -*----------------------------------*\
  =========                 |
  \\      /  F ield         | OpenFOAM: The Open Source CFD Toolbox
   \\    /   O peration     | Website:  https://openfoam.org
    \\  /    A nd           | Version:  6.0
     \\/     M anipulation  |
\*---------------------------------------------------------------------------*/
FoamFile
{
    version     2.0;
    format      ascii;
    class       IOobject;
    location    "0";
    object      log;
}
// * * * * * * * * * * * * * * * * * * * * * * * * * * * * * * * * * * * * * //


Processor 0: field transfer
Processor 1: field transfer
Processor 2: field transfer
Processor 3: field transfer

End

TACC:  Starting up job 5690049 
TACC:  Starting parallel tasks... 
/*---------------------------------------------------------------------------*\
  =========                 |
  \\      /  F ield         | OpenFOAM: The Open Source CFD Toolbox
   \\    /   O peration     | Website:  https://openfoam.org
    \\  /    A nd           | Version:  6.0
     \\/     M anipulation  |
\*---------------------------------------------------------------------------*/
Build  : 6.0
Exec   : /home1/apps/intel18/impi18_0/OpenFOAM/OpenFOAM-6.0/platforms/linux64IccDPInt32Opt/bin/icoFoam -parallel
Date   : May 13 2020
Time   : 09:26:24
Host   : "c421-054.stampede2.tacc.utexas.edu"
PID    : 205491
I/O    : uncollated
Case   : /work/05113/danieler/stampede2/CFD-Final-Project/circular-cylinder-10-1
nProcs : 4
Slaves : 
3
(
"c421-054.stampede2.tacc.utexas.edu.205492"
"c421-054.stampede2.tacc.utexas.edu.205493"
"c421-054.stampede2.tacc.utexas.edu.205494"
)

Pstream initialized with:
    floatTransfer      : 0
    nProcsSimpleSum    : 0
    commsType          : nonBlocking
    polling iterations : 0
sigFpe : Enabling floating point exception trapping (FOAM_SIGFPE).
fileModificationChecking : Monitoring run-time modified files using timeStampMaster (fileModificationSkew 10)
allowSystemOperations : Allowing user-supplied system call operations

// * * * * * * * * * * * * * * * * * * * * * * * * * * * * * * * * * * * * * //
Create time

Create mesh for time = 0

Reading transportProperties

Reading field p

Reading field U

Reading/calculating face flux field phi


Starting time loop

Time = 0.035

Courant Number mean: 0.118491 max: 1.04457
smoothSolver:  Solving for Ux, Initial residual = 1, Final residual = 9.59862e-06, No Iterations 11
smoothSolver:  Solving for Uy, Initial residual = 1, Final residual = 8.97816e-06, No Iterations 11
DICPCG:  Solving for p, Initial residual = 1, Final residual = 0.0415811, No Iterations 57
time step continuity errors : sum local = 2.7908e-05, global = -6.14358e-07, cumulative = -6.14358e-07
DICPCG:  Solving for p, Initial residual = 0.336871, Final residual = 9.78518e-07, No Iterations 100
time step continuity errors : sum local = 2.58032e-09, global = -2.74489e-11, cumulative = -6.14385e-07
ExecutionTime = 0.12 s  ClockTime = 1 s

Time = 0.07

Courant Number mean: 0.122569 max: 1.2389
smoothSolver:  Solving for Ux, Initial residual = 0.23811, Final residual = 9.56937e-06, No Iterations 9
smoothSolver:  Solving for Uy, Initial residual = 0.319424, Final residual = 5.11165e-06, No Iterations 10
DICPCG:  Solving for p, Initial residual = 0.383108, Final residual = 0.0170788, No Iterations 56
time step continuity errors : sum local = 3.99717e-05, global = 8.49972e-07, cumulative = 2.35586e-07
DICPCG:  Solving for p, Initial residual = 0.54353, Final residual = 8.60679e-07, No Iterations 102
time step continuity errors : sum local = 1.36128e-09, global = 1.80529e-11, cumulative = 2.35605e-07
ExecutionTime = 0.14 s  ClockTime = 1 s

Time = 0.105

Courant Number mean: 0.122571 max: 1.20825
smoothSolver:  Solving for Ux, Initial residual = 0.0248762, Final residual = 6.42264e-06, No Iterations 7
smoothSolver:  Solving for Uy, Initial residual = 0.0460748, Final residual = 7.54813e-06, No Iterations 7
DICPCG:  Solving for p, Initial residual = 0.782824, Final residual = 0.0385256, No Iterations 23
time step continuity errors : sum local = 1.50373e-05, global = -3.0403e-06, cumulative = -2.8047e-06
DICPCG:  Solving for p, Initial residual = 0.440751, Final residual = 7.81673e-07, No Iterations 98
time step continuity errors : sum local = 2.75685e-10, global = 2.07648e-12, cumulative = -2.8047e-06
ExecutionTime = 0.16 s  ClockTime = 1 s

Time = 0.14

Courant Number mean: 0.122538 max: 1.1556
smoothSolver:  Solving for Ux, Initial residual = 0.021746, Final residual = 4.89836e-06, No Iterations 7
smoothSolver:  Solving for Uy, Initial residual = 0.0306909, Final residual = 5.04158e-06, No Iterations 7
DICPCG:  Solving for p, Initial residual = 0.205356, Final residual = 0.00822153, No Iterations 47
time step continuity errors : sum local = 2.2478e-06, global = 1.17226e-08, cumulative = -2.79297e-06
DICPCG:  Solving for p, Initial residual = 0.149459, Final residual = 9.50798e-07, No Iterations 94
time step continuity errors : sum local = 1.80142e-10, global = 9.64583e-13, cumulative = -2.79297e-06
ExecutionTime = 0.18 s  ClockTime = 1 s

Time = 0.175

Courant Number mean: 0.122538 max: 1.11597
smoothSolver:  Solving for Ux, Initial residual = 0.0131443, Final residual = 8.95551e-06, No Iterations 6
smoothSolver:  Solving for Uy, Initial residual = 0.0215533, Final residual = 4.33895e-06, No Iterations 7
DICPCG:  Solving for p, Initial residual = 0.123859, Final residual = 0.0057492, No Iterations 28
time step continuity errors : sum local = 1.17026e-06, global = 3.19219e-07, cumulative = -2.47375e-06
DICPCG:  Solving for p, Initial residual = 0.0682764, Final residual = 9.24508e-07, No Iterations 92
time step continuity errors : sum local = 1.81592e-10, global = -1.2382e-12, cumulative = -2.47376e-06
ExecutionTime = 0.19 s  ClockTime = 1 s

Time = 0.21

Courant Number mean: 0.122545 max: 1.08028
smoothSolver:  Solving for Ux, Initial residual = 0.0103187, Final residual = 6.98738e-06, No Iterations 6
smoothSolver:  Solving for Uy, Initial residual = 0.0187818, Final residual = 9.09317e-06, No Iterations 6
DICPCG:  Solving for p, Initial residual = 0.100591, Final residual = 0.00475352, No Iterations 27
time step continuity errors : sum local = 8.72819e-07, global = 1.66975e-07, cumulative = -2.30678e-06
DICPCG:  Solving for p, Initial residual = 0.0546994, Final residual = 9.85131e-07, No Iterations 91
time step continuity errors : sum local = 1.76448e-10, global = 1.64896e-13, cumulative = -2.30678e-06
ExecutionTime = 0.22 s  ClockTime = 1 s

Time = 0.245

Courant Number mean: 0.122563 max: 1.06232
smoothSolver:  Solving for Ux, Initial residual = 0.00846427, Final residual = 5.67062e-06, No Iterations 6
smoothSolver:  Solving for Uy, Initial residual = 0.0165625, Final residual = 7.95467e-06, No Iterations 6
DICPCG:  Solving for p, Initial residual = 0.0769329, Final residual = 0.00353273, No Iterations 27
time step continuity errors : sum local = 6.05422e-07, global = 1.02928e-07, cumulative = -2.20385e-06
DICPCG:  Solving for p, Initial residual = 0.0423841, Final residual = 7.73972e-07, No Iterations 89
time step continuity errors : sum local = 1.30755e-10, global = -1.67147e-12, cumulative = -2.20385e-06
ExecutionTime = 0.26 s  ClockTime = 1 s

Time = 0.28

Courant Number mean: 0.122586 max: 1.04628
smoothSolver:  Solving for Ux, Initial residual = 0.0072483, Final residual = 4.72126e-06, No Iterations 6
smoothSolver:  Solving for Uy, Initial residual = 0.0149583, Final residual = 7.02788e-06, No Iterations 6
DICPCG:  Solving for p, Initial residual = 0.0624534, Final residual = 0.00283497, No Iterations 27
time step continuity errors : sum local = 4.64979e-07, global = 7.28307e-08, cumulative = -2.13102e-06
DICPCG:  Solving for p, Initial residual = 0.0352965, Final residual = 7.87812e-07, No Iterations 90
time step continuity errors : sum local = 1.28079e-10, global = -3.71295e-13, cumulative = -2.13102e-06
ExecutionTime = 0.28 s  ClockTime = 1 s

Time = 0.315

Courant Number mean: 0.122612 max: 1.03239
smoothSolver:  Solving for Ux, Initial residual = 0.00637375, Final residual = 4.00117e-06, No Iterations 6
smoothSolver:  Solving for Uy, Initial residual = 0.013716, Final residual = 6.26281e-06, No Iterations 6
DICPCG:  Solving for p, Initial residual = 0.052804, Final residual = 0.00236075, No Iterations 27
time step continuity errors : sum local = 3.7595e-07, global = 5.33003e-08, cumulative = -2.07772e-06
DICPCG:  Solving for p, Initial residual = 0.0306683, Final residual = 8.2575e-07, No Iterations 90
time step continuity errors : sum local = 1.30788e-10, global = -1.30077e-13, cumulative = -2.07772e-06
ExecutionTime = 0.3 s  ClockTime = 1 s

Time = 0.35

Courant Number mean: 0.122641 max: 1.0198
smoothSolver:  Solving for Ux, Initial residual = 0.00572016, Final residual = 8.75904e-06, No Iterations 5
smoothSolver:  Solving for Uy, Initial residual = 0.012734, Final residual = 5.62015e-06, No Iterations 6
DICPCG:  Solving for p, Initial residual = 0.0458224, Final residual = 0.0022723, No Iterations 26
time step continuity errors : sum local = 3.544e-07, global = 4.10656e-08, cumulative = -2.03666e-06
DICPCG:  Solving for p, Initial residual = 0.0271542, Final residual = 8.49402e-07, No Iterations 90
time step continuity errors : sum local = 1.32109e-10, global = -4.71888e-13, cumulative = -2.03666e-06
ExecutionTime = 0.32 s  ClockTime = 1 s

Time = 0.385

Courant Number mean: 0.122673 max: 1.00849
smoothSolver:  Solving for Ux, Initial residual = 0.00520689, Final residual = 7.6276e-06, No Iterations 5
smoothSolver:  Solving for Uy, Initial residual = 0.0119338, Final residual = 5.07322e-06, No Iterations 6
DICPCG:  Solving for p, Initial residual = 0.0410051, Final residual = 0.0019735, No Iterations 26
time step continuity errors : sum local = 3.03224e-07, global = 3.12062e-08, cumulative = -2.00545e-06
DICPCG:  Solving for p, Initial residual = 0.0244132, Final residual = 8.67962e-07, No Iterations 90
time step continuity errors : sum local = 1.3321e-10, global = -9.25449e-13, cumulative = -2.00545e-06
ExecutionTime = 0.34 s  ClockTime = 1 s

Time = 0.42

Courant Number mean: 0.122708 max: 0.99835
smoothSolver:  Solving for Ux, Initial residual = 0.0047965, Final residual = 6.69761e-06, No Iterations 5
smoothSolver:  Solving for Uy, Initial residual = 0.0112714, Final residual = 4.60415e-06, No Iterations 6
DICPCG:  Solving for p, Initial residual = 0.0371937, Final residual = 0.00175176, No Iterations 26
time step continuity errors : sum local = 2.66285e-07, global = 2.49967e-08, cumulative = -1.98046e-06
DICPCG:  Solving for p, Initial residual = 0.0220827, Final residual = 8.39894e-07, No Iterations 90
time step continuity errors : sum local = 1.27647e-10, global = -1.12423e-12, cumulative = -1.98046e-06
ExecutionTime = 0.36 s  ClockTime = 1 s

Time = 0.455

Courant Number mean: 0.122746 max: 0.989881
smoothSolver:  Solving for Ux, Initial residual = 0.00445977, Final residual = 5.92667e-06, No Iterations 5
smoothSolver:  Solving for Uy, Initial residual = 0.0107016, Final residual = 4.19593e-06, No Iterations 6
DICPCG:  Solving for p, Initial residual = 0.0340356, Final residual = 0.00155935, No Iterations 26
time step continuity errors : sum local = 2.35092e-07, global = 1.96142e-08, cumulative = -1.96084e-06
DICPCG:  Solving for p, Initial residual = 0.0200391, Final residual = 8.00362e-07, No Iterations 90
time step continuity errors : sum local = 1.20735e-10, global = -1.13743e-12, cumulative = -1.96085e-06
ExecutionTime = 0.37 s  ClockTime = 1 s

Time = 0.49

Courant Number mean: 0.122785 max: 0.982848
smoothSolver:  Solving for Ux, Initial residual = 0.00417765, Final residual = 5.27876e-06, No Iterations 5
smoothSolver:  Solving for Uy, Initial residual = 0.0102011, Final residual = 9.82193e-06, No Iterations 5
DICPCG:  Solving for p, Initial residual = 0.0314343, Final residual = 0.0014059, No Iterations 26
time step continuity errors : sum local = 2.10692e-07, global = 1.52502e-08, cumulative = -1.94559e-06
DICPCG:  Solving for p, Initial residual = 0.0183786, Final residual = 7.59555e-07, No Iterations 90
time step continuity errors : sum local = 1.1393e-10, global = -1.00817e-12, cumulative = -1.9456e-06
ExecutionTime = 0.42 s  ClockTime = 1 s

Time = 0.525

Courant Number mean: 0.122827 max: 0.977712
smoothSolver:  Solving for Ux, Initial residual = 0.00393635, Final residual = 4.72875e-06, No Iterations 5
smoothSolver:  Solving for Uy, Initial residual = 0.00975779, Final residual = 9.04121e-06, No Iterations 5
DICPCG:  Solving for p, Initial residual = 0.0287478, Final residual = 0.0014088, No Iterations 25
time step continuity errors : sum local = 2.12485e-07, global = 1.1802e-08, cumulative = -1.93379e-06
DICPCG:  Solving for p, Initial residual = 0.0167374, Final residual = 7.0272e-07, No Iterations 90
time step continuity errors : sum local = 1.0594e-10, global = -9.12633e-13, cumulative = -1.93379e-06
ExecutionTime = 0.44 s  ClockTime = 1 s

Time = 0.56

Courant Number mean: 0.122869 max: 0.973489
smoothSolver:  Solving for Ux, Initial residual = 0.00372805, Final residual = 4.25933e-06, No Iterations 5
smoothSolver:  Solving for Uy, Initial residual = 0.00936567, Final residual = 8.34172e-06, No Iterations 5
DICPCG:  Solving for p, Initial residual = 0.0264419, Final residual = 0.00125325, No Iterations 25
time step continuity errors : sum local = 1.90258e-07, global = 9.0719e-09, cumulative = -1.92472e-06
DICPCG:  Solving for p, Initial residual = 0.0152243, Final residual = 9.22563e-07, No Iterations 89
time step continuity errors : sum local = 1.4003e-10, global = -2.19473e-12, cumulative = -1.92473e-06
ExecutionTime = 0.46 s  ClockTime = 1 s

Time = 0.595

Courant Number mean: 0.122913 max: 0.969526
smoothSolver:  Solving for Ux, Initial residual = 0.00354669, Final residual = 3.85545e-06, No Iterations 5
smoothSolver:  Solving for Uy, Initial residual = 0.00900994, Final residual = 7.71742e-06, No Iterations 5
DICPCG:  Solving for p, Initial residual = 0.0244139, Final residual = 0.0011404, No Iterations 25
time step continuity errors : sum local = 1.74234e-07, global = 6.81216e-09, cumulative = -1.91791e-06
DICPCG:  Solving for p, Initial residual = 0.0139352, Final residual = 8.34326e-07, No Iterations 89
time step continuity errors : sum local = 1.27477e-10, global = -1.96131e-12, cumulative = -1.91791e-06
ExecutionTime = 0.48 s  ClockTime = 1 s

Time = 0.63

Courant Number mean: 0.122958 max: 0.965822
smoothSolver:  Solving for Ux, Initial residual = 0.00338821, Final residual = 9.49932e-06, No Iterations 4
smoothSolver:  Solving for Uy, Initial residual = 0.00869165, Final residual = 7.16094e-06, No Iterations 5
DICPCG:  Solving for p, Initial residual = 0.022394, Final residual = 0.00107604, No Iterations 25
time step continuity errors : sum local = 1.65417e-07, global = 7.56042e-09, cumulative = -1.91035e-06
DICPCG:  Solving for p, Initial residual = 0.0127032, Final residual = 7.12822e-07, No Iterations 89
time step continuity errors : sum local = 1.09576e-10, global = -1.81211e-12, cumulative = -1.91036e-06
ExecutionTime = 0.49 s  ClockTime = 1 s

Time = 0.665

Courant Number mean: 0.123003 max: 0.962371
smoothSolver:  Solving for Ux, Initial residual = 0.00324703, Final residual = 8.70699e-06, No Iterations 4
smoothSolver:  Solving for Uy, Initial residual = 0.00841454, Final residual = 6.66077e-06, No Iterations 5
DICPCG:  Solving for p, Initial residual = 0.0209173, Final residual = 0.000986579, No Iterations 25
time step continuity errors : sum local = 1.52564e-07, global = 4.21554e-09, cumulative = -1.90614e-06
DICPCG:  Solving for p, Initial residual = 0.0117507, Final residual = 9.5131e-07, No Iterations 88
time step continuity errors : sum local = 1.47103e-10, global = -2.94125e-12, cumulative = -1.90614e-06
ExecutionTime = 0.51 s  ClockTime = 1 s

Time = 0.7

Courant Number mean: 0.123049 max: 0.959169
smoothSolver:  Solving for Ux, Initial residual = 0.00312462, Final residual = 7.99344e-06, No Iterations 4
smoothSolver:  Solving for Uy, Initial residual = 0.00816974, Final residual = 6.21117e-06, No Iterations 5
DICPCG:  Solving for p, Initial residual = 0.0195856, Final residual = 0.000942639, No Iterations 25
time step continuity errors : sum local = 1.46541e-07, global = 3.19266e-09, cumulative = -1.90295e-06
DICPCG:  Solving for p, Initial residual = 0.0109669, Final residual = 8.96481e-07, No Iterations 88
time step continuity errors : sum local = 1.39359e-10, global = -2.74092e-12, cumulative = -1.90295e-06
ExecutionTime = 0.53 s  ClockTime = 1 s

Time = 0.735

Courant Number mean: 0.123095 max: 0.95621
smoothSolver:  Solving for Ux, Initial residual = 0.00301432, Final residual = 7.36088e-06, No Iterations 4
smoothSolver:  Solving for Uy, Initial residual = 0.00793823, Final residual = 5.80561e-06, No Iterations 5
DICPCG:  Solving for p, Initial residual = 0.0184622, Final residual = 0.000899459, No Iterations 25
time step continuity errors : sum local = 1.40577e-07, global = 1.80868e-09, cumulative = -1.90115e-06
DICPCG:  Solving for p, Initial residual = 0.0102829, Final residual = 8.38724e-07, No Iterations 88
time step continuity errors : sum local = 1.31112e-10, global = -2.55397e-12, cumulative = -1.90115e-06
ExecutionTime = 0.57 s  ClockTime = 1 s

Time = 0.77

Courant Number mean: 0.123142 max: 0.953488
smoothSolver:  Solving for Ux, Initial residual = 0.00291385, Final residual = 6.79604e-06, No Iterations 4
smoothSolver:  Solving for Uy, Initial residual = 0.0077254, Final residual = 5.43896e-06, No Iterations 5
DICPCG:  Solving for p, Initial residual = 0.0174979, Final residual = 0.000868071, No Iterations 25
time step continuity errors : sum local = 1.36374e-07, global = 6.99816e-10, cumulative = -1.90045e-06
DICPCG:  Solving for p, Initial residual = 0.00967311, Final residual = 8.04326e-07, No Iterations 88
time step continuity errors : sum local = 1.2637e-10, global = -2.37062e-12, cumulative = -1.90045e-06
ExecutionTime = 0.6 s  ClockTime = 1 s

Time = 0.805

Courant Number mean: 0.123189 max: 0.950993
smoothSolver:  Solving for Ux, Initial residual = 0.00282252, Final residual = 6.29001e-06, No Iterations 4
smoothSolver:  Solving for Uy, Initial residual = 0.00753203, Final residual = 5.10592e-06, No Iterations 5
DICPCG:  Solving for p, Initial residual = 0.0166392, Final residual = 0.000774817, No Iterations 26
time step continuity errors : sum local = 1.22303e-07, global = -2.32354e-09, cumulative = -1.90277e-06
DICPCG:  Solving for p, Initial residual = 0.00907317, Final residual = 7.61486e-07, No Iterations 88
time step continuity errors : sum local = 1.20192e-10, global = -2.25134e-12, cumulative = -1.90278e-06
ExecutionTime = 0.61 s  ClockTime = 1 s

Time = 0.84

Courant Number mean: 0.123236 max: 0.948714
smoothSolver:  Solving for Ux, Initial residual = 0.00273902, Final residual = 5.83412e-06, No Iterations 4
smoothSolver:  Solving for Uy, Initial residual = 0.00734921, Final residual = 4.80297e-06, No Iterations 5
DICPCG:  Solving for p, Initial residual = 0.0158439, Final residual = 0.00075231, No Iterations 26
time step continuity errors : sum local = 1.19267e-07, global = -3.04513e-09, cumulative = -1.90582e-06
DICPCG:  Solving for p, Initial residual = 0.00860028, Final residual = 7.16022e-07, No Iterations 88
time step continuity errors : sum local = 1.13492e-10, global = -2.06086e-12, cumulative = -1.90582e-06
ExecutionTime = 0.63 s  ClockTime = 1 s

Time = 0.875

Courant Number mean: 0.123283 max: 0.946643
smoothSolver:  Solving for Ux, Initial residual = 0.0026624, Final residual = 5.42378e-06, No Iterations 4
smoothSolver:  Solving for Uy, Initial residual = 0.00717494, Final residual = 4.52656e-06, No Iterations 5
DICPCG:  Solving for p, Initial residual = 0.0151504, Final residual = 0.00073505, No Iterations 26
time step continuity errors : sum local = 1.16984e-07, global = -3.83277e-09, cumulative = -1.90966e-06
DICPCG:  Solving for p, Initial residual = 0.00820062, Final residual = 6.80275e-07, No Iterations 88
time step continuity errors : sum local = 1.08236e-10, global = -1.86065e-12, cumulative = -1.90966e-06
ExecutionTime = 0.65 s  ClockTime = 1 s

Time = 0.91

Courant Number mean: 0.12333 max: 0.944767
smoothSolver:  Solving for Ux, Initial residual = 0.00259214, Final residual = 5.05481e-06, No Iterations 4
smoothSolver:  Solving for Uy, Initial residual = 0.00700767, Final residual = 4.27455e-06, No Iterations 5
DICPCG:  Solving for p, Initial residual = 0.0145123, Final residual = 0.000720547, No Iterations 26
time step continuity errors : sum local = 1.15078e-07, global = -4.47369e-09, cumulative = -1.91413e-06
DICPCG:  Solving for p, Initial residual = 0.00784612, Final residual = 6.48008e-07, No Iterations 88
time step continuity errors : sum local = 1.03449e-10, global = -1.66191e-12, cumulative = -1.91413e-06
ExecutionTime = 0.66 s  ClockTime = 1 s

Time = 0.945

Courant Number mean: 0.123378 max: 0.943074
smoothSolver:  Solving for Ux, Initial residual = 0.00252841, Final residual = 4.72802e-06, No Iterations 4
smoothSolver:  Solving for Uy, Initial residual = 0.00685228, Final residual = 4.04436e-06, No Iterations 5
DICPCG:  Solving for p, Initial residual = 0.0139345, Final residual = 0.00060322, No Iterations 27
time step continuity errors : sum local = 9.66359e-08, global = -6.39866e-09, cumulative = -1.92053e-06
DICPCG:  Solving for p, Initial residual = 0.00747214, Final residual = 6.07721e-07, No Iterations 88
time step continuity errors : sum local = 9.72996e-11, global = -1.46096e-12, cumulative = -1.92053e-06
ExecutionTime = 0.68 s  ClockTime = 1 s

Time = 0.98

Courant Number mean: 0.123426 max: 0.941553
smoothSolver:  Solving for Ux, Initial residual = 0.00247149, Final residual = 4.43573e-06, No Iterations 4
smoothSolver:  Solving for Uy, Initial residual = 0.00671349, Final residual = 3.83355e-06, No Iterations 5
DICPCG:  Solving for p, Initial residual = 0.0134086, Final residual = 0.000596963, No Iterations 27
time step continuity errors : sum local = 9.5889e-08, global = -6.76221e-09, cumulative = -1.9273e-06
DICPCG:  Solving for p, Initial residual = 0.00718542, Final residual = 9.48573e-07, No Iterations 87
time step continuity errors : sum local = 1.5226e-10, global = -1.81278e-12, cumulative = -1.9273e-06
ExecutionTime = 0.7 s  ClockTime = 1 s

Time = 1.015

Courant Number mean: 0.123473 max: 0.940191
smoothSolver:  Solving for Ux, Initial residual = 0.00241828, Final residual = 4.1683e-06, No Iterations 4
smoothSolver:  Solving for Uy, Initial residual = 0.00659481, Final residual = 9.95094e-06, No Iterations 4
DICPCG:  Solving for p, Initial residual = 0.0129825, Final residual = 0.000589637, No Iterations 27
time step continuity errors : sum local = 9.49477e-08, global = -7.12616e-09, cumulative = -1.93442e-06
DICPCG:  Solving for p, Initial residual = 0.00698655, Final residual = 9.27349e-07, No Iterations 87
time step continuity errors : sum local = 1.49211e-10, global = -1.35447e-12, cumulative = -1.93442e-06
ExecutionTime = 0.75 s  ClockTime = 1 s

Time = 1.05

Courant Number mean: 0.12352 max: 0.938976
smoothSolver:  Solving for Ux, Initial residual = 0.00236848, Final residual = 3.92281e-06, No Iterations 4
smoothSolver:  Solving for Uy, Initial residual = 0.00648482, Final residual = 9.47394e-06, No Iterations 4
DICPCG:  Solving for p, Initial residual = 0.0125278, Final residual = 0.000574587, No Iterations 27
time step continuity errors : sum local = 9.27346e-08, global = -7.46367e-09, cumulative = -1.94189e-06
DICPCG:  Solving for p, Initial residual = 0.00673445, Final residual = 8.88852e-07, No Iterations 87
time step continuity errors : sum local = 1.43336e-10, global = -1.10302e-12, cumulative = -1.94189e-06
ExecutionTime = 0.77 s  ClockTime = 1 s

Time = 1.085

Courant Number mean: 0.123567 max: 0.938182
smoothSolver:  Solving for Ux, Initial residual = 0.00232221, Final residual = 3.69699e-06, No Iterations 4
smoothSolver:  Solving for Uy, Initial residual = 0.00637976, Final residual = 9.02308e-06, No Iterations 4
DICPCG:  Solving for p, Initial residual = 0.012094, Final residual = 0.000560978, No Iterations 27
time step continuity errors : sum local = 9.07679e-08, global = -7.57274e-09, cumulative = -1.94946e-06
DICPCG:  Solving for p, Initial residual = 0.00649447, Final residual = 8.55082e-07, No Iterations 87
time step continuity errors : sum local = 1.38298e-10, global = -8.66001e-13, cumulative = -1.94946e-06
ExecutionTime = 0.79 s  ClockTime = 1 s

Time = 1.12

Courant Number mean: 0.123614 max: 0.937632
smoothSolver:  Solving for Ux, Initial residual = 0.00227852, Final residual = 3.48881e-06, No Iterations 4
smoothSolver:  Solving for Uy, Initial residual = 0.00627992, Final residual = 8.60388e-06, No Iterations 4
DICPCG:  Solving for p, Initial residual = 0.0116765, Final residual = 0.000549831, No Iterations 27
time step continuity errors : sum local = 8.92175e-08, global = -7.65566e-09, cumulative = -1.95712e-06
DICPCG:  Solving for p, Initial residual = 0.00627043, Final residual = 8.20934e-07, No Iterations 87
time step continuity errors : sum local = 1.33164e-10, global = -6.54342e-13, cumulative = -1.95712e-06
ExecutionTime = 0.8 s  ClockTime = 1 s

Time = 1.155

Courant Number mean: 0.123661 max: 0.937178
smoothSolver:  Solving for Ux, Initial residual = 0.00223733, Final residual = 3.29643e-06, No Iterations 4
smoothSolver:  Solving for Uy, Initial residual = 0.00618555, Final residual = 8.21348e-06, No Iterations 4
DICPCG:  Solving for p, Initial residual = 0.0112897, Final residual = 0.000540511, No Iterations 27
time step continuity errors : sum local = 8.79448e-08, global = -7.68701e-09, cumulative = -1.96481e-06
DICPCG:  Solving for p, Initial residual = 0.00606034, Final residual = 7.85907e-07, No Iterations 87
time step continuity errors : sum local = 1.27824e-10, global = -4.62824e-13, cumulative = -1.96481e-06
ExecutionTime = 0.82 s  ClockTime = 1 s

Time = 1.19

Courant Number mean: 0.123707 max: 0.93681
smoothSolver:  Solving for Ux, Initial residual = 0.00219818, Final residual = 9.4786e-06, No Iterations 3
smoothSolver:  Solving for Uy, Initial residual = 0.00609334, Final residual = 7.84882e-06, No Iterations 4
DICPCG:  Solving for p, Initial residual = 0.0108476, Final residual = 0.000499346, No Iterations 27
time step continuity errors : sum local = 8.14449e-08, global = -3.71803e-09, cumulative = -1.96852e-06
DICPCG:  Solving for p, Initial residual = 0.00586821, Final residual = 6.87359e-07, No Iterations 87
time step continuity errors : sum local = 1.12064e-10, global = 6.94226e-14, cumulative = -1.96852e-06
ExecutionTime = 0.84 s  ClockTime = 1 s

Time = 1.225

Courant Number mean: 0.123753 max: 0.936516
smoothSolver:  Solving for Ux, Initial residual = 0.00216016, Final residual = 9.02142e-06, No Iterations 3
smoothSolver:  Solving for Uy, Initial residual = 0.00599886, Final residual = 7.50522e-06, No Iterations 4
DICPCG:  Solving for p, Initial residual = 0.0104997, Final residual = 0.00049019, No Iterations 27
time step continuity errors : sum local = 8.01457e-08, global = -5.84945e-09, cumulative = -1.97437e-06
DICPCG:  Solving for p, Initial residual = 0.00563922, Final residual = 9.64287e-07, No Iterations 86
time step continuity errors : sum local = 1.57598e-10, global = 5.49613e-13, cumulative = -1.97437e-06
ExecutionTime = 0.85 s  ClockTime = 2 s

Time = 1.26

Courant Number mean: 0.123799 max: 0.936291
smoothSolver:  Solving for Ux, Initial residual = 0.00212525, Final residual = 8.56794e-06, No Iterations 3
smoothSolver:  Solving for Uy, Initial residual = 0.00590761, Final residual = 7.18634e-06, No Iterations 4
DICPCG:  Solving for p, Initial residual = 0.0101979, Final residual = 0.000482601, No Iterations 27
time step continuity errors : sum local = 7.90505e-08, global = -5.24985e-09, cumulative = -1.97962e-06
DICPCG:  Solving for p, Initial residual = 0.00547031, Final residual = 9.4641e-07, No Iterations 86
time step continuity errors : sum local = 1.5495e-10, global = 6.82294e-13, cumulative = -1.97962e-06
ExecutionTime = 0.91 s  ClockTime = 2 s

Time = 1.295

Courant Number mean: 0.123844 max: 0.936314
smoothSolver:  Solving for Ux, Initial residual = 0.00209292, Final residual = 8.14854e-06, No Iterations 3
smoothSolver:  Solving for Uy, Initial residual = 0.0058174, Final residual = 6.88841e-06, No Iterations 4
DICPCG:  Solving for p, Initial residual = 0.00992151, Final residual = 0.000476764, No Iterations 27
time step continuity errors : sum local = 7.82348e-08, global = -5.38076e-09, cumulative = -1.985e-06
DICPCG:  Solving for p, Initial residual = 0.00530708, Final residual = 9.24804e-07, No Iterations 86
time step continuity errors : sum local = 1.51687e-10, global = 7.97674e-13, cumulative = -1.985e-06
ExecutionTime = 0.93 s  ClockTime = 2 s

Time = 1.33

Courant Number mean: 0.123889 max: 0.936677
smoothSolver:  Solving for Ux, Initial residual = 0.00206292, Final residual = 7.75591e-06, No Iterations 3
smoothSolver:  Solving for Uy, Initial residual = 0.00572949, Final residual = 6.61044e-06, No Iterations 4
DICPCG:  Solving for p, Initial residual = 0.00966439, Final residual = 0.000468858, No Iterations 27
time step continuity errors : sum local = 7.70672e-08, global = -5.34305e-09, cumulative = -1.99035e-06
DICPCG:  Solving for p, Initial residual = 0.00515083, Final residual = 8.9824e-07, No Iterations 86
time step continuity errors : sum local = 1.47578e-10, global = 8.81851e-13, cumulative = -1.99035e-06
ExecutionTime = 0.95 s  ClockTime = 2 s

Time = 1.365

Courant Number mean: 0.123934 max: 0.936858
smoothSolver:  Solving for Ux, Initial residual = 0.00203427, Final residual = 7.38956e-06, No Iterations 3
smoothSolver:  Solving for Uy, Initial residual = 0.00564526, Final residual = 6.35006e-06, No Iterations 4
DICPCG:  Solving for p, Initial residual = 0.00941493, Final residual = 0.000466836, No Iterations 27
time step continuity errors : sum local = 7.6854e-08, global = -5.27757e-09, cumulative = -1.99562e-06
DICPCG:  Solving for p, Initial residual = 0.00500239, Final residual = 8.847e-07, No Iterations 86
time step continuity errors : sum local = 1.45575e-10, global = 9.64161e-13, cumulative = -1.99562e-06
ExecutionTime = 0.97 s  ClockTime = 2 s

Time = 1.4

Courant Number mean: 0.123978 max: 0.937496
smoothSolver:  Solving for Ux, Initial residual = 0.00200665, Final residual = 7.04667e-06, No Iterations 3
smoothSolver:  Solving for Uy, Initial residual = 0.00557077, Final residual = 6.10592e-06, No Iterations 4
DICPCG:  Solving for p, Initial residual = 0.00917381, Final residual = 0.000456202, No Iterations 27
time step continuity errors : sum local = 7.52122e-08, global = -5.26075e-09, cumulative = -2.00088e-06
DICPCG:  Solving for p, Initial residual = 0.00485557, Final residual = 8.5491e-07, No Iterations 86
time step continuity errors : sum local = 1.40873e-10, global = 1.01469e-12, cumulative = -2.00088e-06
ExecutionTime = 0.98 s  ClockTime = 2 s

Time = 1.435

Courant Number mean: 0.124022 max: 0.938471
smoothSolver:  Solving for Ux, Initial residual = 0.0019802, Final residual = 6.72506e-06, No Iterations 3
smoothSolver:  Solving for Uy, Initial residual = 0.00550729, Final residual = 5.87663e-06, No Iterations 4
DICPCG:  Solving for p, Initial residual = 0.00893087, Final residual = 0.000394023, No Iterations 28
time step continuity errors : sum local = 6.50579e-08, global = -4.24208e-09, cumulative = -2.00512e-06
DICPCG:  Solving for p, Initial residual = 0.00469309, Final residual = 8.40841e-07, No Iterations 86
time step continuity errors : sum local = 1.38781e-10, global = 1.08501e-12, cumulative = -2.00512e-06
ExecutionTime = 1 s  ClockTime = 2 s

Time = 1.47

Courant Number mean: 0.124065 max: 0.939406
smoothSolver:  Solving for Ux, Initial residual = 0.00195464, Final residual = 6.42319e-06, No Iterations 3
smoothSolver:  Solving for Uy, Initial residual = 0.00544488, Final residual = 5.66197e-06, No Iterations 4
DICPCG:  Solving for p, Initial residual = 0.00869836, Final residual = 0.000388808, No Iterations 28
time step continuity errors : sum local = 6.42968e-08, global = -4.17794e-09, cumulative = -2.0093e-06
DICPCG:  Solving for p, Initial residual = 0.00457164, Final residual = 8.2295e-07, No Iterations 86
time step continuity errors : sum local = 1.3603e-10, global = 1.07189e-12, cumulative = -2.0093e-06
ExecutionTime = 1.01 s  ClockTime = 2 s

Time = 1.505

Courant Number mean: 0.124108 max: 0.940305
smoothSolver:  Solving for Ux, Initial residual = 0.00192986, Final residual = 6.14027e-06, No Iterations 3
smoothSolver:  Solving for Uy, Initial residual = 0.00538366, Final residual = 5.45933e-06, No Iterations 4
DICPCG:  Solving for p, Initial residual = 0.00848289, Final residual = 0.000390722, No Iterations 28
time step continuity errors : sum local = 6.47052e-08, global = -4.14871e-09, cumulative = -2.01345e-06
DICPCG:  Solving for p, Initial residual = 0.004447, Final residual = 7.93094e-07, No Iterations 86
time step continuity errors : sum local = 1.31285e-10, global = 1.11337e-12, cumulative = -2.01345e-06
ExecutionTime = 1.06 s  ClockTime = 2 s

Time = 1.54

Courant Number mean: 0.12415 max: 0.941174
smoothSolver:  Solving for Ux, Initial residual = 0.001906, Final residual = 5.87405e-06, No Iterations 3
smoothSolver:  Solving for Uy, Initial residual = 0.00532379, Final residual = 5.26827e-06, No Iterations 4
DICPCG:  Solving for p, Initial residual = 0.00827432, Final residual = 0.000383082, No Iterations 28
time step continuity errors : sum local = 6.35332e-08, global = -4.04708e-09, cumulative = -2.01749e-06
DICPCG:  Solving for p, Initial residual = 0.0043252, Final residual = 7.66919e-07, No Iterations 86
time step continuity errors : sum local = 1.27147e-10, global = 1.13831e-12, cumulative = -2.01749e-06
ExecutionTime = 1.08 s  ClockTime = 2 s

Time = 1.575

Courant Number mean: 0.124191 max: 0.942016
smoothSolver:  Solving for Ux, Initial residual = 0.00188333, Final residual = 5.62336e-06, No Iterations 3
smoothSolver:  Solving for Uy, Initial residual = 0.00526908, Final residual = 5.08853e-06, No Iterations 4
DICPCG:  Solving for p, Initial residual = 0.00806896, Final residual = 0.000376435, No Iterations 28
time step continuity errors : sum local = 6.25237e-08, global = -3.94806e-09, cumulative = -2.02144e-06
DICPCG:  Solving for p, Initial residual = 0.00420605, Final residual = 9.81556e-07, No Iterations 85
time step continuity errors : sum local = 1.62985e-10, global = 1.24296e-12, cumulative = -2.02144e-06
ExecutionTime = 1.1 s  ClockTime = 2 s

Time = 1.61

Courant Number mean: 0.124232 max: 0.942836
smoothSolver:  Solving for Ux, Initial residual = 0.00186134, Final residual = 5.38767e-06, No Iterations 3
smoothSolver:  Solving for Uy, Initial residual = 0.00521545, Final residual = 4.91961e-06, No Iterations 4
DICPCG:  Solving for p, Initial residual = 0.00787374, Final residual = 0.000369445, No Iterations 28
time step continuity errors : sum local = 6.14498e-08, global = -3.84249e-09, cumulative = -2.02528e-06
DICPCG:  Solving for p, Initial residual = 0.00409236, Final residual = 9.303e-07, No Iterations 85
time step continuity errors : sum local = 1.54684e-10, global = 1.29736e-12, cumulative = -2.02528e-06
ExecutionTime = 1.11 s  ClockTime = 2 s

Time = 1.645

Courant Number mean: 0.124272 max: 0.943635
smoothSolver:  Solving for Ux, Initial residual = 0.0018401, Final residual = 5.16596e-06, No Iterations 3
smoothSolver:  Solving for Uy, Initial residual = 0.00516158, Final residual = 4.76033e-06, No Iterations 4
DICPCG:  Solving for p, Initial residual = 0.00768938, Final residual = 0.000362439, No Iterations 28
time step continuity errors : sum local = 6.03632e-08, global = -3.73604e-09, cumulative = -2.02902e-06
DICPCG:  Solving for p, Initial residual = 0.00398307, Final residual = 8.86088e-07, No Iterations 85
time step continuity errors : sum local = 1.47518e-10, global = 1.34013e-12, cumulative = -2.02902e-06
ExecutionTime = 1.13 s  ClockTime = 2 s

Time = 1.68

Courant Number mean: 0.124312 max: 0.944416
smoothSolver:  Solving for Ux, Initial residual = 0.00182012, Final residual = 4.95666e-06, No Iterations 3
smoothSolver:  Solving for Uy, Initial residual = 0.0051079, Final residual = 4.60991e-06, No Iterations 4
DICPCG:  Solving for p, Initial residual = 0.0075192, Final residual = 0.000355502, No Iterations 28
time step continuity errors : sum local = 5.92776e-08, global = -3.62837e-09, cumulative = -2.03264e-06
DICPCG:  Solving for p, Initial residual = 0.00387674, Final residual = 8.38173e-07, No Iterations 85
time step continuity errors : sum local = 1.39708e-10, global = 1.39627e-12, cumulative = -2.03264e-06
ExecutionTime = 1.15 s  ClockTime = 2 s

Time = 1.715

Courant Number mean: 0.124351 max: 0.945183
smoothSolver:  Solving for Ux, Initial residual = 0.00180106, Final residual = 4.7589e-06, No Iterations 3
smoothSolver:  Solving for Uy, Initial residual = 0.00505401, Final residual = 4.46786e-06, No Iterations 4
DICPCG:  Solving for p, Initial residual = 0.0073548, Final residual = 0.000348649, No Iterations 28
time step continuity errors : sum local = 5.81976e-08, global = -3.52046e-09, cumulative = -2.03616e-06
DICPCG:  Solving for p, Initial residual = 0.00377567, Final residual = 9.65859e-07, No Iterations 84
time step continuity errors : sum local = 1.6116e-10, global = -4.74451e-14, cumulative = -2.03616e-06
ExecutionTime = 1.17 s  ClockTime = 2 s

Time = 1.75

Courant Number mean: 0.124391 max: 0.945936
smoothSolver:  Solving for Ux, Initial residual = 0.00178311, Final residual = 4.57205e-06, No Iterations 3
smoothSolver:  Solving for Uy, Initial residual = 0.00500061, Final residual = 4.3341e-06, No Iterations 4
DICPCG:  Solving for p, Initial residual = 0.00720264, Final residual = 0.000341611, No Iterations 28
time step continuity errors : sum local = 5.70846e-08, global = -3.41262e-09, cumulative = -2.03958e-06
DICPCG:  Solving for p, Initial residual = 0.00367717, Final residual = 9.0824e-07, No Iterations 84
time step continuity errors : sum local = 1.51739e-10, global = 1.47094e-13, cumulative = -2.03958e-06
ExecutionTime = 1.21 s  ClockTime = 2 s

Time = 1.785

Courant Number mean: 0.124429 max: 0.946676
smoothSolver:  Solving for Ux, Initial residual = 0.00176622, Final residual = 4.39542e-06, No Iterations 3
smoothSolver:  Solving for Uy, Initial residual = 0.00494852, Final residual = 4.20837e-06, No Iterations 4
DICPCG:  Solving for p, Initial residual = 0.00706718, Final residual = 0.000334852, No Iterations 28
time step continuity errors : sum local = 5.60315e-08, global = -3.30553e-09, cumulative = -2.04288e-06
DICPCG:  Solving for p, Initial residual = 0.00357981, Final residual = 8.55571e-07, No Iterations 84
time step continuity errors : sum local = 1.43136e-10, global = 3.99727e-13, cumulative = -2.04288e-06
ExecutionTime = 1.23 s  ClockTime = 2 s

Time = 1.82

Courant Number mean: 0.124467 max: 0.947406
smoothSolver:  Solving for Ux, Initial residual = 0.0017498, Final residual = 4.22848e-06, No Iterations 3
smoothSolver:  Solving for Uy, Initial residual = 0.00490047, Final residual = 4.08992e-06, No Iterations 4
DICPCG:  Solving for p, Initial residual = 0.00693239, Final residual = 0.000328237, No Iterations 28
time step continuity errors : sum local = 5.4997e-08, global = -3.1992e-09, cumulative = -2.04608e-06
DICPCG:  Solving for p, Initial residual = 0.0034853, Final residual = 9.70796e-07, No Iterations 83
time step continuity errors : sum local = 1.62628e-10, global = 1.05887e-13, cumulative = -2.04608e-06
ExecutionTime = 1.25 s  ClockTime = 2 s

Time = 1.855

Courant Number mean: 0.124505 max: 0.948127
smoothSolver:  Solving for Ux, Initial residual = 0.00173378, Final residual = 4.07037e-06, No Iterations 3
smoothSolver:  Solving for Uy, Initial residual = 0.00485285, Final residual = 3.97784e-06, No Iterations 4
DICPCG:  Solving for p, Initial residual = 0.00679949, Final residual = 0.000321545, No Iterations 28
time step continuity errors : sum local = 5.39409e-08, global = -3.09402e-09, cumulative = -2.04917e-06
DICPCG:  Solving for p, Initial residual = 0.00339385, Final residual = 9.46587e-07, No Iterations 83
time step continuity errors : sum local = 1.58754e-10, global = 3.66049e-13, cumulative = -2.04917e-06
ExecutionTime = 1.26 s  ClockTime = 2 s

Time = 1.89

Courant Number mean: 0.124541 max: 0.948838
smoothSolver:  Solving for Ux, Initial residual = 0.00171813, Final residual = 3.92044e-06, No Iterations 3
smoothSolver:  Solving for Uy, Initial residual = 0.00480701, Final residual = 3.87235e-06, No Iterations 4
DICPCG:  Solving for p, Initial residual = 0.00666805, Final residual = 0.000314993, No Iterations 28
time step continuity errors : sum local = 5.28964e-08, global = -2.98944e-09, cumulative = -2.05216e-06
DICPCG:  Solving for p, Initial residual = 0.00330584, Final residual = 9.57677e-07, No Iterations 83
time step continuity errors : sum local = 1.6077e-10, global = 4.72802e-13, cumulative = -2.05216e-06
ExecutionTime = 1.28 s  ClockTime = 2 s

Time = 1.925

Courant Number mean: 0.124577 max: 0.949541
smoothSolver:  Solving for Ux, Initial residual = 0.00170281, Final residual = 3.77815e-06, No Iterations 3
smoothSolver:  Solving for Uy, Initial residual = 0.00476522, Final residual = 3.77283e-06, No Iterations 4
DICPCG:  Solving for p, Initial residual = 0.00654127, Final residual = 0.000308655, No Iterations 28
time step continuity errors : sum local = 5.18793e-08, global = -2.88587e-09, cumulative = -2.05505e-06
DICPCG:  Solving for p, Initial residual = 0.00322218, Final residual = 9.67456e-07, No Iterations 83
time step continuity errors : sum local = 1.62556e-10, global = 3.69091e-13, cumulative = -2.05505e-06
ExecutionTime = 1.3 s  ClockTime = 2 s

Time = 1.96

Courant Number mean: 0.124612 max: 0.950236
smoothSolver:  Solving for Ux, Initial residual = 0.00168777, Final residual = 3.64314e-06, No Iterations 3
smoothSolver:  Solving for Uy, Initial residual = 0.00472647, Final residual = 3.67898e-06, No Iterations 4
DICPCG:  Solving for p, Initial residual = 0.00641661, Final residual = 0.000302459, No Iterations 28
time step continuity errors : sum local = 5.08825e-08, global = -2.78253e-09, cumulative = -2.05783e-06
DICPCG:  Solving for p, Initial residual = 0.00314143, Final residual = 9.81021e-07, No Iterations 83
time step continuity errors : sum local = 1.64988e-10, global = 1.41681e-13, cumulative = -2.05783e-06
ExecutionTime = 1.32 s  ClockTime = 2 s

Time = 1.995

Courant Number mean: 0.124646 max: 0.950925
smoothSolver:  Solving for Ux, Initial residual = 0.00167312, Final residual = 3.51543e-06, No Iterations 3
smoothSolver:  Solving for Uy, Initial residual = 0.0046895, Final residual = 3.59057e-06, No Iterations 4
DICPCG:  Solving for p, Initial residual = 0.00629368, Final residual = 0.00029616, No Iterations 28
time step continuity errors : sum local = 4.98642e-08, global = -2.67896e-09, cumulative = -2.06051e-06
DICPCG:  Solving for p, Initial residual = 0.00306502, Final residual = 9.75817e-07, No Iterations 83
time step continuity errors : sum local = 1.6424e-10, global = -1.35821e-13, cumulative = -2.06051e-06
ExecutionTime = 1.36 s  ClockTime = 2 s

Time = 2.03

Courant Number mean: 0.124681 max: 0.951606
smoothSolver:  Solving for Ux, Initial residual = 0.0016591, Final residual = 3.39464e-06, No Iterations 3
smoothSolver:  Solving for Uy, Initial residual = 0.00465665, Final residual = 3.50735e-06, No Iterations 4
DICPCG:  Solving for p, Initial residual = 0.00617337, Final residual = 0.000289917, No Iterations 28
time step continuity errors : sum local = 4.88486e-08, global = -2.57469e-09, cumulative = -2.06308e-06
DICPCG:  Solving for p, Initial residual = 0.00299195, Final residual = 9.56319e-07, No Iterations 83
time step continuity errors : sum local = 1.61073e-10, global = -3.78975e-13, cumulative = -2.06308e-06
ExecutionTime = 1.38 s  ClockTime = 2 s

Time = 2.065

Courant Number mean: 0.124715 max: 0.952282
smoothSolver:  Solving for Ux, Initial residual = 0.00164548, Final residual = 3.27962e-06, No Iterations 3
smoothSolver:  Solving for Uy, Initial residual = 0.00462367, Final residual = 3.42911e-06, No Iterations 4
DICPCG:  Solving for p, Initial residual = 0.00605473, Final residual = 0.000283571, No Iterations 28
time step continuity errors : sum local = 4.78146e-08, global = -2.4694e-09, cumulative = -2.06555e-06
DICPCG:  Solving for p, Initial residual = 0.00291989, Final residual = 9.25261e-07, No Iterations 83
time step continuity errors : sum local = 1.55965e-10, global = -5.57585e-13, cumulative = -2.06555e-06
ExecutionTime = 1.4 s  ClockTime = 2 s

Time = 2.1

Courant Number mean: 0.124748 max: 0.953283
smoothSolver:  Solving for Ux, Initial residual = 0.0016321, Final residual = 3.16992e-06, No Iterations 3
smoothSolver:  Solving for Uy, Initial residual = 0.00459037, Final residual = 3.35484e-06, No Iterations 4
DICPCG:  Solving for p, Initial residual = 0.00593907, Final residual = 0.000277205, No Iterations 28
time step continuity errors : sum local = 4.67745e-08, global = -2.363e-09, cumulative = -2.06792e-06
DICPCG:  Solving for p, Initial residual = 0.00285036, Final residual = 8.88971e-07, No Iterations 83
time step continuity errors : sum local = 1.49953e-10, global = -6.64774e-13, cumulative = -2.06792e-06
ExecutionTime = 1.42 s  ClockTime = 2 s

Time = 2.135

Courant Number mean: 0.124782 max: 0.954378
smoothSolver:  Solving for Ux, Initial residual = 0.00161892, Final residual = 3.06519e-06, No Iterations 3
smoothSolver:  Solving for Uy, Initial residual = 0.00455626, Final residual = 9.80362e-06, No Iterations 3
DICPCG:  Solving for p, Initial residual = 0.0058422, Final residual = 0.000279235, No Iterations 28
time step continuity errors : sum local = 4.7146e-08, global = -2.31605e-09, cumulative = -2.07023e-06
DICPCG:  Solving for p, Initial residual = 0.00282771, Final residual = 9.31785e-07, No Iterations 83
time step continuity errors : sum local = 1.57258e-10, global = -4.4106e-13, cumulative = -2.07023e-06
ExecutionTime = 1.44 s  ClockTime = 2 s

Time = 2.17

Courant Number mean: 0.124815 max: 0.955458
smoothSolver:  Solving for Ux, Initial residual = 0.00160646, Final residual = 2.96532e-06, No Iterations 3
smoothSolver:  Solving for Uy, Initial residual = 0.00452242, Final residual = 9.63403e-06, No Iterations 3
DICPCG:  Solving for p, Initial residual = 0.00573505, Final residual = 0.000273523, No Iterations 28
time step continuity errors : sum local = 4.62063e-08, global = -2.31156e-09, cumulative = -2.07255e-06
DICPCG:  Solving for p, Initial residual = 0.00276553, Final residual = 8.89798e-07, No Iterations 83
time step continuity errors : sum local = 1.50245e-10, global = -4.55323e-13, cumulative = -2.07255e-06
ExecutionTime = 1.45 s  ClockTime = 2 s

Time = 2.205

Courant Number mean: 0.124848 max: 0.956525
smoothSolver:  Solving for Ux, Initial residual = 0.00159406, Final residual = 2.86984e-06, No Iterations 3
smoothSolver:  Solving for Uy, Initial residual = 0.00448713, Final residual = 9.45101e-06, No Iterations 3
DICPCG:  Solving for p, Initial residual = 0.00562468, Final residual = 0.000267401, No Iterations 28
time step continuity errors : sum local = 4.51903e-08, global = -2.19158e-09, cumulative = -2.07474e-06
DICPCG:  Solving for p, Initial residual = 0.00270065, Final residual = 8.58896e-07, No Iterations 83
time step continuity errors : sum local = 1.45087e-10, global = -4.30894e-13, cumulative = -2.07474e-06
ExecutionTime = 1.47 s  ClockTime = 2 s

Time = 2.24

Courant Number mean: 0.12488 max: 0.95758
smoothSolver:  Solving for Ux, Initial residual = 0.00158183, Final residual = 2.77847e-06, No Iterations 3
smoothSolver:  Solving for Uy, Initial residual = 0.0044544, Final residual = 9.27943e-06, No Iterations 3
DICPCG:  Solving for p, Initial residual = 0.0055186, Final residual = 0.000261204, No Iterations 28
time step continuity errors : sum local = 4.41684e-08, global = -2.08279e-09, cumulative = -2.07682e-06
DICPCG:  Solving for p, Initial residual = 0.00263628, Final residual = 8.22827e-07, No Iterations 83
time step continuity errors : sum local = 1.39097e-10, global = -3.7923e-13, cumulative = -2.07682e-06
ExecutionTime = 1.51 s  ClockTime = 2 s

Time = 2.275

Courant Number mean: 0.124913 max: 0.958624
smoothSolver:  Solving for Ux, Initial residual = 0.0015698, Final residual = 2.6911e-06, No Iterations 3
smoothSolver:  Solving for Uy, Initial residual = 0.00442228, Final residual = 9.11774e-06, No Iterations 3
DICPCG:  Solving for p, Initial residual = 0.00541877, Final residual = 0.000255028, No Iterations 28
time step continuity errors : sum local = 4.31534e-08, global = -1.97126e-09, cumulative = -2.07879e-06
DICPCG:  Solving for p, Initial residual = 0.0025739, Final residual = 7.89883e-07, No Iterations 83
time step continuity errors : sum local = 1.33615e-10, global = -3.15344e-13, cumulative = -2.07879e-06
ExecutionTime = 1.54 s  ClockTime = 2 s

Time = 2.31

Courant Number mean: 0.124945 max: 0.959658
smoothSolver:  Solving for Ux, Initial residual = 0.00155824, Final residual = 2.60741e-06, No Iterations 3
smoothSolver:  Solving for Uy, Initial residual = 0.00439075, Final residual = 8.96414e-06, No Iterations 3
DICPCG:  Solving for p, Initial residual = 0.0053312, Final residual = 0.000249015, No Iterations 28
time step continuity errors : sum local = 4.21639e-08, global = -1.86344e-09, cumulative = -2.08066e-06
DICPCG:  Solving for p, Initial residual = 0.00251476, Final residual = 7.56689e-07, No Iterations 83
time step continuity errors : sum local = 1.28089e-10, global = -2.64547e-13, cumulative = -2.08066e-06
ExecutionTime = 1.55 s  ClockTime = 2 s

Time = 2.345

Courant Number mean: 0.124976 max: 0.960682
smoothSolver:  Solving for Ux, Initial residual = 0.00154715, Final residual = 2.5271e-06, No Iterations 3
smoothSolver:  Solving for Uy, Initial residual = 0.00436153, Final residual = 8.81936e-06, No Iterations 3
DICPCG:  Solving for p, Initial residual = 0.005244, Final residual = 0.00024297, No Iterations 28
time step continuity errors : sum local = 4.11671e-08, global = -1.75886e-09, cumulative = -2.08242e-06
DICPCG:  Solving for p, Initial residual = 0.00245765, Final residual = 7.45716e-07, No Iterations 83
time step continuity errors : sum local = 1.26311e-10, global = -1.7288e-13, cumulative = -2.08242e-06
ExecutionTime = 1.57 s  ClockTime = 2 s

Time = 2.38

Courant Number mean: 0.125006 max: 0.961698
smoothSolver:  Solving for Ux, Initial residual = 0.00153634, Final residual = 2.4502e-06, No Iterations 3
smoothSolver:  Solving for Uy, Initial residual = 0.0043324, Final residual = 8.68252e-06, No Iterations 3
DICPCG:  Solving for p, Initial residual = 0.00515794, Final residual = 0.0002369, No Iterations 28
time step continuity errors : sum local = 4.01634e-08, global = -1.65832e-09, cumulative = -2.08407e-06
DICPCG:  Solving for p, Initial residual = 0.00240161, Final residual = 7.2052e-07, No Iterations 83
time step continuity errors : sum local = 1.22128e-10, global = -8.87569e-14, cumulative = -2.08407e-06
ExecutionTime = 1.59 s  ClockTime = 2 s

Time = 2.415

Courant Number mean: 0.125036 max: 0.962705
smoothSolver:  Solving for Ux, Initial residual = 0.00152576, Final residual = 2.37633e-06, No Iterations 3
smoothSolver:  Solving for Uy, Initial residual = 0.00430482, Final residual = 8.55205e-06, No Iterations 3
DICPCG:  Solving for p, Initial residual = 0.00507285, Final residual = 0.000230928, No Iterations 28
time step continuity errors : sum local = 3.91794e-08, global = -1.56193e-09, cumulative = -2.08564e-06
DICPCG:  Solving for p, Initial residual = 0.00234694, Final residual = 7.13498e-07, No Iterations 83
time step continuity errors : sum local = 1.21027e-10, global = -1.88245e-14, cumulative = -2.08564e-06
ExecutionTime = 1.61 s  ClockTime = 2 s

Time = 2.45

Courant Number mean: 0.125065 max: 0.963705
smoothSolver:  Solving for Ux, Initial residual = 0.00151525, Final residual = 2.30524e-06, No Iterations 3
smoothSolver:  Solving for Uy, Initial residual = 0.00427794, Final residual = 8.4305e-06, No Iterations 3
DICPCG:  Solving for p, Initial residual = 0.00498794, Final residual = 0.000225096, No Iterations 28
time step continuity errors : sum local = 3.82199e-08, global = -1.47001e-09, cumulative = -2.08711e-06
DICPCG:  Solving for p, Initial residual = 0.00229453, Final residual = 7.01963e-07, No Iterations 83
time step continuity errors : sum local = 1.19171e-10, global = 6.28644e-14, cumulative = -2.08711e-06
ExecutionTime = 1.62 s  ClockTime = 2 s

Time = 2.485

Courant Number mean: 0.125095 max: 0.964697
smoothSolver:  Solving for Ux, Initial residual = 0.00150496, Final residual = 9.8192e-06, No Iterations 2
smoothSolver:  Solving for Uy, Initial residual = 0.00425415, Final residual = 8.31408e-06, No Iterations 3
DICPCG:  Solving for p, Initial residual = 0.00539053, Final residual = 0.000257946, No Iterations 26
time step continuity errors : sum local = 4.38376e-08, global = 9.126e-10, cumulative = -2.08619e-06
DICPCG:  Solving for p, Initial residual = 0.00272775, Final residual = 8.87666e-07, No Iterations 84
time step continuity errors : sum local = 1.50861e-10, global = -5.9533e-13, cumulative = -2.08619e-06
ExecutionTime = 1.66 s  ClockTime = 2 s

Time = 2.52

Courant Number mean: 0.125125 max: 0.965675
smoothSolver:  Solving for Ux, Initial residual = 0.00149445, Final residual = 9.62893e-06, No Iterations 2
smoothSolver:  Solving for Uy, Initial residual = 0.00423194, Final residual = 8.19922e-06, No Iterations 3
DICPCG:  Solving for p, Initial residual = 0.00518358, Final residual = 0.000249411, No Iterations 26
time step continuity errors : sum local = 4.24295e-08, global = -5.20297e-10, cumulative = -2.08671e-06
DICPCG:  Solving for p, Initial residual = 0.00260262, Final residual = 8.47459e-07, No Iterations 84
time step continuity errors : sum local = 1.44172e-10, global = -1.71296e-13, cumulative = -2.08671e-06
ExecutionTime = 1.68 s  ClockTime = 2 s

Time = 2.555

Courant Number mean: 0.125155 max: 0.966648
smoothSolver:  Solving for Ux, Initial residual = 0.00148475, Final residual = 9.40707e-06, No Iterations 2
smoothSolver:  Solving for Uy, Initial residual = 0.00420825, Final residual = 8.09375e-06, No Iterations 3
DICPCG:  Solving for p, Initial residual = 0.00510841, Final residual = 0.000246847, No Iterations 26
time step continuity errors : sum local = 4.20241e-08, global = -1.82283e-11, cumulative = -2.08673e-06
DICPCG:  Solving for p, Initial residual = 0.00254953, Final residual = 9.9731e-07, No Iterations 83
time step continuity errors : sum local = 1.69803e-10, global = -7.63495e-13, cumulative = -2.08673e-06
ExecutionTime = 1.7 s  ClockTime = 2 s

Time = 2.59

Courant Number mean: 0.125185 max: 0.967614
smoothSolver:  Solving for Ux, Initial residual = 0.00147544, Final residual = 9.19789e-06, No Iterations 2
smoothSolver:  Solving for Uy, Initial residual = 0.00418432, Final residual = 7.99203e-06, No Iterations 3
DICPCG:  Solving for p, Initial residual = 0.00502468, Final residual = 0.000244012, No Iterations 26
time step continuity errors : sum local = 4.15767e-08, global = -9.2947e-11, cumulative = -2.08683e-06
DICPCG:  Solving for p, Initial residual = 0.00249895, Final residual = 9.76516e-07, No Iterations 83
time step continuity errors : sum local = 1.664e-10, global = -6.67393e-13, cumulative = -2.08683e-06
ExecutionTime = 1.72 s  ClockTime = 2 s

Time = 2.625

Courant Number mean: 0.125214 max: 0.968575
smoothSolver:  Solving for Ux, Initial residual = 0.00146623, Final residual = 8.99422e-06, No Iterations 2
smoothSolver:  Solving for Uy, Initial residual = 0.00416047, Final residual = 7.89583e-06, No Iterations 3
DICPCG:  Solving for p, Initial residual = 0.00494638, Final residual = 0.000241841, No Iterations 26
time step continuity errors : sum local = 4.12377e-08, global = -4.46432e-11, cumulative = -2.08687e-06
DICPCG:  Solving for p, Initial residual = 0.00245227, Final residual = 9.66768e-07, No Iterations 83
time step continuity errors : sum local = 1.64854e-10, global = -6.20031e-13, cumulative = -2.08687e-06
ExecutionTime = 1.73 s  ClockTime = 3 s

Time = 2.66

Courant Number mean: 0.125242 max: 0.96953
smoothSolver:  Solving for Ux, Initial residual = 0.00145705, Final residual = 8.79657e-06, No Iterations 2
smoothSolver:  Solving for Uy, Initial residual = 0.00413733, Final residual = 7.80392e-06, No Iterations 3
DICPCG:  Solving for p, Initial residual = 0.00486281, Final residual = 0.000239543, No Iterations 26
time step continuity errors : sum local = 4.08722e-08, global = -3.6796e-11, cumulative = -2.08691e-06
DICPCG:  Solving for p, Initial residual = 0.00240449, Final residual = 9.50552e-07, No Iterations 83
time step continuity errors : sum local = 1.62186e-10, global = -5.65815e-13, cumulative = -2.08691e-06
ExecutionTime = 1.75 s  ClockTime = 3 s

Time = 2.695

Courant Number mean: 0.12527 max: 0.970481
smoothSolver:  Solving for Ux, Initial residual = 0.00144791, Final residual = 8.60454e-06, No Iterations 2
smoothSolver:  Solving for Uy, Initial residual = 0.0041152, Final residual = 7.71655e-06, No Iterations 3
DICPCG:  Solving for p, Initial residual = 0.00478571, Final residual = 0.000237924, No Iterations 26
time step continuity errors : sum local = 4.06179e-08, global = -1.30922e-11, cumulative = -2.08692e-06
DICPCG:  Solving for p, Initial residual = 0.00236087, Final residual = 9.32354e-07, No Iterations 83
time step continuity errors : sum local = 1.59161e-10, global = -5.09962e-13, cumulative = -2.08692e-06
ExecutionTime = 1.77 s  ClockTime = 3 s

Time = 2.73

Courant Number mean: 0.125298 max: 0.971427
smoothSolver:  Solving for Ux, Initial residual = 0.00143882, Final residual = 8.41797e-06, No Iterations 2
smoothSolver:  Solving for Uy, Initial residual = 0.00409216, Final residual = 7.63226e-06, No Iterations 3
DICPCG:  Solving for p, Initial residual = 0.00471317, Final residual = 0.00023546, No Iterations 26
time step continuity errors : sum local = 4.02157e-08, global = 1.57569e-11, cumulative = -2.08691e-06
DICPCG:  Solving for p, Initial residual = 0.00231707, Final residual = 9.19452e-07, No Iterations 83
time step continuity errors : sum local = 1.57024e-10, global = -4.44425e-13, cumulative = -2.08691e-06
ExecutionTime = 1.79 s  ClockTime = 3 s

Time = 2.765

Courant Number mean: 0.125325 max: 0.972368
smoothSolver:  Solving for Ux, Initial residual = 0.00142996, Final residual = 8.23682e-06, No Iterations 2
smoothSolver:  Solving for Uy, Initial residual = 0.00406977, Final residual = 7.55237e-06, No Iterations 3
DICPCG:  Solving for p, Initial residual = 0.00464998, Final residual = 0.000202071, No Iterations 27
time step continuity errors : sum local = 3.45256e-08, global = 7.65459e-10, cumulative = -2.08614e-06
DICPCG:  Solving for p, Initial residual = 0.00225618, Final residual = 8.92168e-07, No Iterations 83
time step continuity errors : sum local = 1.52414e-10, global = -4.05213e-13, cumulative = -2.08614e-06
ExecutionTime = 1.83 s  ClockTime = 3 s

Time = 2.8

Courant Number mean: 0.125352 max: 0.973305
smoothSolver:  Solving for Ux, Initial residual = 0.00142114, Final residual = 8.06159e-06, No Iterations 2
smoothSolver:  Solving for Uy, Initial residual = 0.00404812, Final residual = 7.47546e-06, No Iterations 3
DICPCG:  Solving for p, Initial residual = 0.00458598, Final residual = 0.000229176, No Iterations 26
time step continuity errors : sum local = 3.91676e-08, global = 6.38544e-11, cumulative = -2.08608e-06
DICPCG:  Solving for p, Initial residual = 0.00223612, Final residual = 8.89007e-07, No Iterations 83
time step continuity errors : sum local = 1.51908e-10, global = -3.887e-13, cumulative = -2.08608e-06
ExecutionTime = 1.85 s  ClockTime = 3 s

Time = 2.835

Courant Number mean: 0.125378 max: 0.974237
smoothSolver:  Solving for Ux, Initial residual = 0.00141245, Final residual = 7.88876e-06, No Iterations 2
smoothSolver:  Solving for Uy, Initial residual = 0.00402641, Final residual = 7.40148e-06, No Iterations 3
DICPCG:  Solving for p, Initial residual = 0.00452327, Final residual = 0.000194252, No Iterations 27
time step continuity errors : sum local = 3.32045e-08, global = 7.91047e-10, cumulative = -2.08529e-06
DICPCG:  Solving for p, Initial residual = 0.00217925, Final residual = 8.48536e-07, No Iterations 83
time step continuity errors : sum local = 1.45011e-10, global = -3.25029e-13, cumulative = -2.08529e-06
ExecutionTime = 1.87 s  ClockTime = 3 s

Time = 2.87

Courant Number mean: 0.125403 max: 0.975165
smoothSolver:  Solving for Ux, Initial residual = 0.00140391, Final residual = 7.72258e-06, No Iterations 2
smoothSolver:  Solving for Uy, Initial residual = 0.00400503, Final residual = 7.32954e-06, No Iterations 3
DICPCG:  Solving for p, Initial residual = 0.00446345, Final residual = 0.000190159, No Iterations 27
time step continuity errors : sum local = 3.25091e-08, global = 7.64117e-10, cumulative = -2.08452e-06
DICPCG:  Solving for p, Initial residual = 0.00214355, Final residual = 8.61785e-07, No Iterations 83
time step continuity errors : sum local = 1.47294e-10, global = -3.32666e-13, cumulative = -2.08453e-06
ExecutionTime = 1.88 s  ClockTime = 3 s

Time = 2.905

Courant Number mean: 0.125427 max: 0.976088
smoothSolver:  Solving for Ux, Initial residual = 0.00139564, Final residual = 7.56019e-06, No Iterations 2
smoothSolver:  Solving for Uy, Initial residual = 0.00398478, Final residual = 7.25997e-06, No Iterations 3
DICPCG:  Solving for p, Initial residual = 0.00439939, Final residual = 0.000190674, No Iterations 27
time step continuity errors : sum local = 3.25997e-08, global = 7.77595e-10, cumulative = -2.08375e-06
DICPCG:  Solving for p, Initial residual = 0.00210686, Final residual = 8.51112e-07, No Iterations 83
time step continuity errors : sum local = 1.45475e-10, global = -2.94574e-13, cumulative = -2.08375e-06
ExecutionTime = 1.9 s  ClockTime = 3 s

Time = 2.94

Courant Number mean: 0.125452 max: 0.977007
smoothSolver:  Solving for Ux, Initial residual = 0.00138747, Final residual = 7.40209e-06, No Iterations 2
smoothSolver:  Solving for Uy, Initial residual = 0.00396748, Final residual = 7.19153e-06, No Iterations 3
DICPCG:  Solving for p, Initial residual = 0.00433993, Final residual = 0.000185932, No Iterations 27
time step continuity errors : sum local = 3.17898e-08, global = 7.63404e-10, cumulative = -2.08298e-06
DICPCG:  Solving for p, Initial residual = 0.0020722, Final residual = 8.2941e-07, No Iterations 83
time step continuity errors : sum local = 1.41768e-10, global = -2.97868e-13, cumulative = -2.08298e-06
ExecutionTime = 1.92 s  ClockTime = 3 s

Time = 2.975

Courant Number mean: 0.125476 max: 0.977921
smoothSolver:  Solving for Ux, Initial residual = 0.00137929, Final residual = 7.24802e-06, No Iterations 2
smoothSolver:  Solving for Uy, Initial residual = 0.00395119, Final residual = 7.12506e-06, No Iterations 3
DICPCG:  Solving for p, Initial residual = 0.00428333, Final residual = 0.000184044, No Iterations 27
time step continuity errors : sum local = 3.14674e-08, global = 7.72613e-10, cumulative = -2.08221e-06
DICPCG:  Solving for p, Initial residual = 0.00203819, Final residual = 9.98987e-07, No Iterations 82
time step continuity errors : sum local = 1.70753e-10, global = -7.57823e-13, cumulative = -2.08221e-06
ExecutionTime = 1.94 s  ClockTime = 3 s

Time = 3.01

Courant Number mean: 0.1255 max: 0.97883
smoothSolver:  Solving for Ux, Initial residual = 0.00137114, Final residual = 7.09821e-06, No Iterations 2
smoothSolver:  Solving for Uy, Initial residual = 0.00393435, Final residual = 7.05989e-06, No Iterations 3
DICPCG:  Solving for p, Initial residual = 0.00422774, Final residual = 0.000182078, No Iterations 27
time step continuity errors : sum local = 3.1133e-08, global = 7.60069e-10, cumulative = -2.08145e-06
DICPCG:  Solving for p, Initial residual = 0.00200426, Final residual = 9.83239e-07, No Iterations 82
time step continuity errors : sum local = 1.68082e-10, global = -7.22569e-13, cumulative = -2.08145e-06
ExecutionTime = 1.98 s  ClockTime = 3 s

Time = 3.045

Courant Number mean: 0.125525 max: 0.979734
smoothSolver:  Solving for Ux, Initial residual = 0.00136299, Final residual = 6.9524e-06, No Iterations 2
smoothSolver:  Solving for Uy, Initial residual = 0.00391701, Final residual = 6.9957e-06, No Iterations 3
DICPCG:  Solving for p, Initial residual = 0.00417191, Final residual = 0.000178916, No Iterations 27
time step continuity errors : sum local = 3.05955e-08, global = 7.62522e-10, cumulative = -2.08069e-06
DICPCG:  Solving for p, Initial residual = 0.0019719, Final residual = 9.68624e-07, No Iterations 82
time step continuity errors : sum local = 1.656e-10, global = -6.30742e-13, cumulative = -2.08069e-06
ExecutionTime = 2 s  ClockTime = 3 s

Time = 3.08

Courant Number mean: 0.125548 max: 0.980632
smoothSolver:  Solving for Ux, Initial residual = 0.00135491, Final residual = 6.81053e-06, No Iterations 2
smoothSolver:  Solving for Uy, Initial residual = 0.00389925, Final residual = 6.9313e-06, No Iterations 3
DICPCG:  Solving for p, Initial residual = 0.00411718, Final residual = 0.000175427, No Iterations 27
time step continuity errors : sum local = 3.00004e-08, global = 7.62557e-10, cumulative = -2.07993e-06
DICPCG:  Solving for p, Initial residual = 0.00193898, Final residual = 9.54234e-07, No Iterations 82
time step continuity errors : sum local = 1.63142e-10, global = -6.87078e-13, cumulative = -2.07993e-06
ExecutionTime = 2.02 s  ClockTime = 3 s

Time = 3.115

Courant Number mean: 0.125571 max: 0.981525
smoothSolver:  Solving for Ux, Initial residual = 0.001347, Final residual = 6.67251e-06, No Iterations 2
smoothSolver:  Solving for Uy, Initial residual = 0.00388279, Final residual = 6.86755e-06, No Iterations 3
DICPCG:  Solving for p, Initial residual = 0.00406026, Final residual = 0.00017478, No Iterations 27
time step continuity errors : sum local = 2.9889e-08, global = 7.5523e-10, cumulative = -2.07917e-06
DICPCG:  Solving for p, Initial residual = 0.00190771, Final residual = 9.46469e-07, No Iterations 82
time step continuity errors : sum local = 1.61803e-10, global = -6.45325e-13, cumulative = -2.07918e-06
ExecutionTime = 2.04 s  ClockTime = 3 s

Time = 3.15

Courant Number mean: 0.125593 max: 0.982411
smoothSolver:  Solving for Ux, Initial residual = 0.00133934, Final residual = 6.53817e-06, No Iterations 2
smoothSolver:  Solving for Uy, Initial residual = 0.00386553, Final residual = 6.80433e-06, No Iterations 3
DICPCG:  Solving for p, Initial residual = 0.00400531, Final residual = 0.000169442, No Iterations 27
time step continuity errors : sum local = 2.89735e-08, global = 7.71281e-10, cumulative = -2.0784e-06
DICPCG:  Solving for p, Initial residual = 0.00187577, Final residual = 9.34905e-07, No Iterations 82
time step continuity errors : sum local = 1.59807e-10, global = -7.29145e-13, cumulative = -2.0784e-06
ExecutionTime = 2.06 s  ClockTime = 3 s

Time = 3.185

Courant Number mean: 0.125614 max: 0.983291
smoothSolver:  Solving for Ux, Initial residual = 0.00133181, Final residual = 6.40756e-06, No Iterations 2
smoothSolver:  Solving for Uy, Initial residual = 0.00384731, Final residual = 6.74087e-06, No Iterations 3
DICPCG:  Solving for p, Initial residual = 0.00394865, Final residual = 0.000169262, No Iterations 27
time step continuity errors : sum local = 2.89391e-08, global = 7.54341e-10, cumulative = -2.07765e-06
DICPCG:  Solving for p, Initial residual = 0.00184626, Final residual = 9.27996e-07, No Iterations 82
time step continuity errors : sum local = 1.58608e-10, global = -6.27253e-13, cumulative = -2.07765e-06
ExecutionTime = 2.07 s  ClockTime = 3 s

Time = 3.22

Courant Number mean: 0.125636 max: 0.984164
smoothSolver:  Solving for Ux, Initial residual = 0.00132436, Final residual = 6.28065e-06, No Iterations 2
smoothSolver:  Solving for Uy, Initial residual = 0.00382972, Final residual = 6.67733e-06, No Iterations 3
DICPCG:  Solving for p, Initial residual = 0.00390121, Final residual = 0.000165128, No Iterations 27
time step continuity errors : sum local = 2.82287e-08, global = 7.70154e-10, cumulative = -2.07688e-06
DICPCG:  Solving for p, Initial residual = 0.00181638, Final residual = 9.21745e-07, No Iterations 82
time step continuity errors : sum local = 1.57516e-10, global = -7.08675e-13, cumulative = -2.07688e-06
ExecutionTime = 2.09 s  ClockTime = 3 s

Time = 3.255

Courant Number mean: 0.125656 max: 0.985029
smoothSolver:  Solving for Ux, Initial residual = 0.0013172, Final residual = 6.15724e-06, No Iterations 2
smoothSolver:  Solving for Uy, Initial residual = 0.00381249, Final residual = 6.6127e-06, No Iterations 3
DICPCG:  Solving for p, Initial residual = 0.00385485, Final residual = 0.000162187, No Iterations 27
time step continuity errors : sum local = 2.77208e-08, global = 7.59366e-10, cumulative = -2.07612e-06
DICPCG:  Solving for p, Initial residual = 0.00178844, Final residual = 9.04388e-07, No Iterations 82
time step continuity errors : sum local = 1.54516e-10, global = -6.30494e-13, cumulative = -2.07612e-06
ExecutionTime = 2.13 s  ClockTime = 3 s

Time = 3.29

Courant Number mean: 0.125676 max: 0.985886
smoothSolver:  Solving for Ux, Initial residual = 0.00131008, Final residual = 6.03691e-06, No Iterations 2
[...]

        phi

Reconstructing point fields

No point fields

No lagrangian fields

Time = 5.74

Reconstructing FV fields

    Reconstructing volScalarFields

        p

    Reconstructing volVectorFields

        U

    Reconstructing surfaceScalarFields

        phi

Reconstructing point fields

No point fields

No lagrangian fields

Time = 5.985

Reconstructing FV fields

    Reconstructing volScalarFields

        p

    Reconstructing volVectorFields

        U

    Reconstructing surfaceScalarFields

        phi

Reconstructing point fields

No point fields

No lagrangian fields

Time = 6.265

Reconstructing FV fields

    Reconstructing volScalarFields

        p

    Reconstructing volVectorFields

        U

    Reconstructing surfaceScalarFields

        phi

Reconstructing point fields

No point fields

No lagrangian fields

Time = 6.51

Reconstructing FV fields

    Reconstructing volScalarFields

        p

    Reconstructing volVectorFields

        U

    Reconstructing surfaceScalarFields

        phi

Reconstructing point fields

No point fields

No lagrangian fields

Time = 6.755

Reconstructing FV fields

    Reconstructing volScalarFields

        p

    Reconstructing volVectorFields

        U

    Reconstructing surfaceScalarFields

        phi

Reconstructing point fields

No point fields

No lagrangian fields

Time = 7

Reconstructing FV fields

    Reconstructing volScalarFields

        p

    Reconstructing volVectorFields

        U

    Reconstructing surfaceScalarFields

        phi

Reconstructing point fields

No point fields

No lagrangian fields

Time = 7.245

Reconstructing FV fields

    Reconstructing volScalarFields

        p

    Reconstructing volVectorFields

        U

    Reconstructing surfaceScalarFields

        phi

Reconstructing point fields

No point fields

No lagrangian fields

Time = 7.49

Reconstructing FV fields

    Reconstructing volScalarFields

        p

    Reconstructing volVectorFields

        U

    Reconstructing surfaceScalarFields

        phi

Reconstructing point fields

No point fields

No lagrangian fields

Time = 7.735

Reconstructing FV fields

    Reconstructing volScalarFields

        p

    Reconstructing volVectorFields

        U

    Reconstructing surfaceScalarFields

        phi

Reconstructing point fields

No point fields

No lagrangian fields

Time = 8.015

Reconstructing FV fields

    Reconstructing volScalarFields

        p

    Reconstructing volVectorFields

        U

    Reconstructing surfaceScalarFields

        phi

Reconstructing point fields

No point fields

No lagrangian fields

Time = 8.26

Reconstructing FV fields

    Reconstructing volScalarFields

        p

    Reconstructing volVectorFields

        U

    Reconstructing surfaceScalarFields

        phi

Reconstructing point fields

No point fields

No lagrangian fields

Time = 8.505

Reconstructing FV fields

    Reconstructing volScalarFields

        p

    Reconstructing volVectorFields

        U

    Reconstructing surfaceScalarFields

        phi

Reconstructing point fields

No point fields

No lagrangian fields

Time = 8.75

Reconstructing FV fields

    Reconstructing volScalarFields

        p

    Reconstructing volVectorFields

        U

    Reconstructing surfaceScalarFields

        phi

Reconstructing point fields

No point fields

No lagrangian fields

Time = 8.995

Reconstructing FV fields

    Reconstructing volScalarFields

        p

    Reconstructing volVectorFields

        U

    Reconstructing surfaceScalarFields

        phi

Reconstructing point fields

No point fields

No lagrangian fields

Time = 9.24

Reconstructing FV fields

    Reconstructing volScalarFields

        p

    Reconstructing volVectorFields

        U

    Reconstructing surfaceScalarFields

        phi

Reconstructing point fields

No point fields

No lagrangian fields

Time = 9.485

Reconstructing FV fields

    Reconstructing volScalarFields

        p

    Reconstructing volVectorFields

        U

    Reconstructing surfaceScalarFields

        phi

Reconstructing point fields

No point fields

No lagrangian fields

Time = 9.765

Reconstructing FV fields

    Reconstructing volScalarFields

        p

    Reconstructing volVectorFields

        U

    Reconstructing surfaceScalarFields

        phi

Reconstructing point fields

No point fields

No lagrangian fields

Time = 10.01

Reconstructing FV fields

    Reconstructing volScalarFields

        p

    Reconstructing volVectorFields

        U

    Reconstructing surfaceScalarFields

        phi

Reconstructing point fields

No point fields

No lagrangian fields

Time = 10.255

Reconstructing FV fields

    Reconstructing volScalarFields

        p

    Reconstructing volVectorFields

        U

    Reconstructing surfaceScalarFields

        phi

Reconstructing point fields

No point fields

No lagrangian fields

Time = 10.5

Reconstructing FV fields

    Reconstructing volScalarFields

        p

    Reconstructing volVectorFields

        U

    Reconstructing surfaceScalarFields

        phi

Reconstructing point fields

No point fields

No lagrangian fields

Time = 10.745

Reconstructing FV fields

    Reconstructing volScalarFields

        p

    Reconstructing volVectorFields

        U

    Reconstructing surfaceScalarFields

        phi

Reconstructing point fields

No point fields

No lagrangian fields

Time = 10.99

Reconstructing FV fields

    Reconstructing volScalarFields

        p

    Reconstructing volVectorFields

        U

    Reconstructing surfaceScalarFields

        phi

Reconstructing point fields

No point fields

No lagrangian fields

Time = 11.235

Reconstructing FV fields

    Reconstructing volScalarFields

        p

    Reconstructing volVectorFields

        U

    Reconstructing surfaceScalarFields

        phi

Reconstructing point fields

No point fields

No lagrangian fields

Time = 11.515

Reconstructing FV fields

    Reconstructing volScalarFields

        p

    Reconstructing volVectorFields

        U

    Reconstructing surfaceScalarFields

        phi

Reconstructing point fields

No point fields

No lagrangian fields

Time = 11.76

Reconstructing FV fields

    Reconstructing volScalarFields

        p

    Reconstructing volVectorFields

        U

    Reconstructing surfaceScalarFields

        phi

Reconstructing point fields

No point fields

No lagrangian fields

Time = 12.005

Reconstructing FV fields

    Reconstructing volScalarFields

        p

    Reconstructing volVectorFields

        U

    Reconstructing surfaceScalarFields

        phi

Reconstructing point fields

No point fields

No lagrangian fields

Time = 12.25

Reconstructing FV fields

    Reconstructing volScalarFields

        p

    Reconstructing volVectorFields

        U

    Reconstructing surfaceScalarFields

        phi

Reconstructing point fields

No point fields

No lagrangian fields

Time = 12.495

Reconstructing FV fields

    Reconstructing volScalarFields

        p

    Reconstructing volVectorFields

        U

    Reconstructing surfaceScalarFields

        phi

Reconstructing point fields

No point fields

No lagrangian fields

Time = 12.74

Reconstructing FV fields

    Reconstructing volScalarFields

        p

    Reconstructing volVectorFields

        U

    Reconstructing surfaceScalarFields

        phi

Reconstructing point fields

No point fields

No lagrangian fields

Time = 12.985

Reconstructing FV fields

    Reconstructing volScalarFields

        p

    Reconstructing volVectorFields

        U

    Reconstructing surfaceScalarFields

        phi

Reconstructing point fields

No point fields

No lagrangian fields

Time = 13.265

Reconstructing FV fields

    Reconstructing volScalarFields

        p

    Reconstructing volVectorFields

        U

    Reconstructing surfaceScalarFields

        phi

Reconstructing point fields

No point fields

No lagrangian fields

Time = 13.51

Reconstructing FV fields

    Reconstructing volScalarFields

        p

    Reconstructing volVectorFields

        U

    Reconstructing surfaceScalarFields

        phi

Reconstructing point fields

No point fields

No lagrangian fields

Time = 13.755

Reconstructing FV fields

    Reconstructing volScalarFields

        p

    Reconstructing volVectorFields

        U

    Reconstructing surfaceScalarFields

        phi

Reconstructing point fields

No point fields

No lagrangian fields

Time = 14

Reconstructing FV fields

    Reconstructing volScalarFields

        p

    Reconstructing volVectorFields

        U

    Reconstructing surfaceScalarFields

        phi

Reconstructing point fields

No point fields

No lagrangian fields

Time = 14.245

Reconstructing FV fields

    Reconstructing volScalarFields

        p

    Reconstructing volVectorFields

        U

    Reconstructing surfaceScalarFields

        phi

Reconstructing point fields

No point fields

No lagrangian fields

Time = 14.49

Reconstructing FV fields

    Reconstructing volScalarFields

        p

    Reconstructing volVectorFields

        U

    Reconstructing surfaceScalarFields

        phi

Reconstructing point fields

No point fields

No lagrangian fields

Time = 14.735

Reconstructing FV fields

    Reconstructing volScalarFields

        p

    Reconstructing volVectorFields

        U

    Reconstructing surfaceScalarFields

        phi

Reconstructing point fields

No point fields

No lagrangian fields

Time = 15.015

Reconstructing FV fields

    Reconstructing volScalarFields

        p

    Reconstructing volVectorFields

        U

    Reconstructing surfaceScalarFields

        phi

Reconstructing point fields

No point fields

No lagrangian fields

Time = 15.26

Reconstructing FV fields

    Reconstructing volScalarFields

        p

    Reconstructing volVectorFields

        U

    Reconstructing surfaceScalarFields

        phi

Reconstructing point fields

No point fields

No lagrangian fields

Time = 15.505

Reconstructing FV fields

    Reconstructing volScalarFields

        p

    Reconstructing volVectorFields

        U

    Reconstructing surfaceScalarFields

        phi

Reconstructing point fields

No point fields

No lagrangian fields

Time = 15.75

Reconstructing FV fields

    Reconstructing volScalarFields

        p

    Reconstructing volVectorFields

        U

    Reconstructing surfaceScalarFields

        phi

Reconstructing point fields

No point fields

No lagrangian fields

Time = 15.995

Reconstructing FV fields

    Reconstructing volScalarFields

        p

    Reconstructing volVectorFields

        U

    Reconstructing surfaceScalarFields

        phi

Reconstructing point fields

No point fields

No lagrangian fields

Time = 16.24

Reconstructing FV fields

    Reconstructing volScalarFields

        p

    Reconstructing volVectorFields

        U

    Reconstructing surfaceScalarFields

        phi

Reconstructing point fields

No point fields

No lagrangian fields

Time = 16.485

Reconstructing FV fields

    Reconstructing volScalarFields

        p

    Reconstructing volVectorFields

        U

    Reconstructing surfaceScalarFields

        phi

Reconstructing point fields

No point fields

No lagrangian fields

Time = 16.765

Reconstructing FV fields

    Reconstructing volScalarFields

        p

    Reconstructing volVectorFields

        U

    Reconstructing surfaceScalarFields

        phi

Reconstructing point fields

No point fields

No lagrangian fields

Time = 17.01

Reconstructing FV fields

    Reconstructing volScalarFields

        p

    Reconstructing volVectorFields

        U

    Reconstructing surfaceScalarFields

        phi

Reconstructing point fields

No point fields

No lagrangian fields

Time = 17.255

Reconstructing FV fields

    Reconstructing volScalarFields

        p

    Reconstructing volVectorFields

        U

    Reconstructing surfaceScalarFields

        phi

Reconstructing point fields

No point fields

No lagrangian fields

Time = 17.5

Reconstructing FV fields

    Reconstructing volScalarFields

        p

    Reconstructing volVectorFields

        U

    Reconstructing surfaceScalarFields

        phi

Reconstructing point fields

No point fields

No lagrangian fields

Time = 17.745

Reconstructing FV fields

    Reconstructing volScalarFields

        p

    Reconstructing volVectorFields

        U

    Reconstructing surfaceScalarFields

        phi

Reconstructing point fields

No point fields

No lagrangian fields

Time = 17.99

Reconstructing FV fields

    Reconstructing volScalarFields

        p

    Reconstructing volVectorFields

        U

    Reconstructing surfaceScalarFields

        phi

Reconstructing point fields

No point fields

No lagrangian fields

Time = 18.235

Reconstructing FV fields

    Reconstructing volScalarFields

        p

    Reconstructing volVectorFields

        U

    Reconstructing surfaceScalarFields

        phi

Reconstructing point fields

No point fields

No lagrangian fields

Time = 18.515

Reconstructing FV fields

    Reconstructing volScalarFields

        p

    Reconstructing volVectorFields

        U

    Reconstructing surfaceScalarFields

        phi

Reconstructing point fields

No point fields

No lagrangian fields

Time = 18.76

Reconstructing FV fields

    Reconstructing volScalarFields

        p

    Reconstructing volVectorFields

        U

    Reconstructing surfaceScalarFields

        phi

Reconstructing point fields

No point fields

No lagrangian fields

Time = 19.005

Reconstructing FV fields

    Reconstructing volScalarFields

        p

    Reconstructing volVectorFields

        U

    Reconstructing surfaceScalarFields

        phi

Reconstructing point fields

No point fields

No lagrangian fields

Time = 19.25

Reconstructing FV fields

    Reconstructing volScalarFields

        p

    Reconstructing volVectorFields

        U

    Reconstructing surfaceScalarFields

        phi

Reconstructing point fields

No point fields

No lagrangian fields

Time = 19.495

Reconstructing FV fields

    Reconstructing volScalarFields

        p

    Reconstructing volVectorFields

        U

    Reconstructing surfaceScalarFields

        phi

Reconstructing point fields

No point fields

No lagrangian fields

Time = 19.74

Reconstructing FV fields

    Reconstructing volScalarFields

        p

    Reconstructing volVectorFields

        U

    Reconstructing surfaceScalarFields

        phi

Reconstructing point fields

No point fields

No lagrangian fields

Time = 19.985

Reconstructing FV fields

    Reconstructing volScalarFields

        p

    Reconstructing volVectorFields

        U

    Reconstructing surfaceScalarFields

        phi

Reconstructing point fields

No point fields

No lagrangian fields

Time = 20.265

Reconstructing FV fields

    Reconstructing volScalarFields

        p

    Reconstructing volVectorFields

        U

    Reconstructing surfaceScalarFields

        phi

Reconstructing point fields

No point fields

No lagrangian fields

Time = 20.51

Reconstructing FV fields

    Reconstructing volScalarFields

        p

    Reconstructing volVectorFields

        U

    Reconstructing surfaceScalarFields

        phi

Reconstructing point fields

No point fields

No lagrangian fields

Time = 20.755

Reconstructing FV fields

    Reconstructing volScalarFields

        p

    Reconstructing volVectorFields

        U

    Reconstructing surfaceScalarFields

        phi

Reconstructing point fields

No point fields

No lagrangian fields

Time = 21

Reconstructing FV fields

    Reconstructing volScalarFields

        p

    Reconstructing volVectorFields

        U

    Reconstructing surfaceScalarFields

        phi

Reconstructing point fields

No point fields

No lagrangian fields

Time = 21.245

Reconstructing FV fields

    Reconstructing volScalarFields

        p

    Reconstructing volVectorFields

        U

    Reconstructing surfaceScalarFields

        phi

Reconstructing point fields

No point fields

No lagrangian fields

Time = 21.49

Reconstructing FV fields

    Reconstructing volScalarFields

        p

    Reconstructing volVectorFields

        U

    Reconstructing surfaceScalarFields

        phi

Reconstructing point fields

No point fields

No lagrangian fields

Time = 21.735

Reconstructing FV fields

    Reconstructing volScalarFields

        p

    Reconstructing volVectorFields

        U

    Reconstructing surfaceScalarFields

        phi

Reconstructing point fields

No point fields

No lagrangian fields

Time = 22.015

Reconstructing FV fields

    Reconstructing volScalarFields

        p

    Reconstructing volVectorFields

        U

    Reconstructing surfaceScalarFields

        phi

Reconstructing point fields

No point fields

No lagrangian fields

Time = 22.26

Reconstructing FV fields

    Reconstructing volScalarFields

        p

    Reconstructing volVectorFields

        U

    Reconstructing surfaceScalarFields

        phi

Reconstructing point fields

No point fields

No lagrangian fields

Time = 22.505

Reconstructing FV fields

    Reconstructing volScalarFields

        p

    Reconstructing volVectorFields

        U

    Reconstructing surfaceScalarFields

        phi

Reconstructing point fields

No point fields

No lagrangian fields

Time = 22.75

Reconstructing FV fields

    Reconstructing volScalarFields

        p

    Reconstructing volVectorFields

        U

    Reconstructing surfaceScalarFields

        phi

Reconstructing point fields

No point fields

No lagrangian fields

Time = 22.995

Reconstructing FV fields

    Reconstructing volScalarFields

        p

    Reconstructing volVectorFields

        U

    Reconstructing surfaceScalarFields

        phi

Reconstructing point fields

No point fields

No lagrangian fields

Time = 23.24

Reconstructing FV fields

    Reconstructing volScalarFields

        p

    Reconstructing volVectorFields

        U

    Reconstructing surfaceScalarFields

        phi

Reconstructing point fields

No point fields

No lagrangian fields

Time = 23.485

Reconstructing FV fields

    Reconstructing volScalarFields

        p

    Reconstructing volVectorFields

        U

    Reconstructing surfaceScalarFields

        phi

Reconstructing point fields

No point fields

No lagrangian fields

Time = 23.765

Reconstructing FV fields

    Reconstructing volScalarFields

        p

    Reconstructing volVectorFields

        U

    Reconstructing surfaceScalarFields

        phi

Reconstructing point fields

No point fields

No lagrangian fields

Time = 24.01

Reconstructing FV fields

    Reconstructing volScalarFields

        p

    Reconstructing volVectorFields

        U

    Reconstructing surfaceScalarFields

        phi

Reconstructing point fields

No point fields

No lagrangian fields

Time = 24.255

Reconstructing FV fields

    Reconstructing volScalarFields

        p

    Reconstructing volVectorFields

        U

    Reconstructing surfaceScalarFields

        phi

Reconstructing point fields

No point fields

No lagrangian fields

Time = 24.5

Reconstructing FV fields

    Reconstructing volScalarFields

        p

    Reconstructing volVectorFields

        U

    Reconstructing surfaceScalarFields

        phi

Reconstructing point fields

No point fields

No lagrangian fields

Time = 24.745

Reconstructing FV fields

    Reconstructing volScalarFields

        p

    Reconstructing volVectorFields

        U

    Reconstructing surfaceScalarFields

        phi

Reconstructing point fields

No point fields

No lagrangian fields

Time = 24.99

Reconstructing FV fields

    Reconstructing volScalarFields

        p

    Reconstructing volVectorFields

        U

    Reconstructing surfaceScalarFields

        phi

Reconstructing point fields

No point fields

No lagrangian fields


End

