/*---------------------------------------------------------------------------*\
| =========                 |                                                 |
| \\      /  F ield         | OpenFOAM: The Open Source CFD Toolbox           |
|  \\    /   O peration     | Version:  v1912                                 |
|   \\  /    A nd           | Website:  www.openfoam.com                      |
|    \\/     M anipulation  |                                                 |
\*---------------------------------------------------------------------------*/
Build  : _f3950763fe-20191219 OPENFOAM=1912
Arch   : "LSB;label=32;scalar=64"
Exec   : icoFoam
Date   : May 13 2020
Time   : 18:23:07
Host   : 0727d5773fe8
PID    : 471
I/O    : uncollated
Case   : /home/ofuser/workingDir/CFD/FinalProject/CFD-Final-Project/circular-cylinder-3-10
nProcs : 1
trapFpe: Floating point exception trapping enabled (FOAM_SIGFPE).
fileModificationChecking : Monitoring run-time modified files using timeStampMaster (fileModificationSkew 10)
allowSystemOperations : Allowing user-supplied system call operations

// * * * * * * * * * * * * * * * * * * * * * * * * * * * * * * * * * * * * * //
Create time

Create mesh for time = 0


PISO: Operating solver in PISO mode

Reading transportProperties

Reading field p

Reading field U

Reading/calculating face flux field phi


Starting time loop

Time = 0.001

Courant Number mean: 0.0089189 max: 0.0942877
smoothSolver:  Solving for Ux, Initial residual = 1, Final residual = 1.9944e-06, No Iterations 5
smoothSolver:  Solving for Uy, Initial residual = 1, Final residual = 2.01461e-06, No Iterations 5
DICPCG:  Solving for p, Initial residual = 1, Final residual = 0.0464353, No Iterations 140
time step continuity errors : sum local = 8.42535e-07, global = 1.38716e-09, cumulative = 1.38716e-09
DICPCG:  Solving for p, Initial residual = 0.167533, Final residual = 9.03007e-07, No Iterations 237
time step continuity errors : sum local = 8.0802e-11, global = 2.39079e-13, cumulative = 1.3874e-09
ExecutionTime = 0.26 s  ClockTime = 1 s

Time = 0.002

Courant Number mean: 0.00928215 max: 0.201732
smoothSolver:  Solving for Ux, Initial residual = 0.291873, Final residual = 1.77144e-06, No Iterations 4
smoothSolver:  Solving for Uy, Initial residual = 0.330677, Final residual = 2.22486e-06, No Iterations 4
DICPCG:  Solving for p, Initial residual = 0.297363, Final residual = 0.0141366, No Iterations 142
time step continuity errors : sum local = 1.13433e-06, global = -4.59327e-09, cumulative = -3.20587e-09
DICPCG:  Solving for p, Initial residual = 0.424999, Final residual = 9.75637e-07, No Iterations 248
time step continuity errors : sum local = 3.60587e-11, global = -1.3453e-14, cumulative = -3.20589e-09
ExecutionTime = 0.4 s  ClockTime = 1 s

Time = 0.003

Courant Number mean: 0.00932372 max: 0.238702
smoothSolver:  Solving for Ux, Initial residual = 0.0177691, Final residual = 2.84644e-06, No Iterations 3
smoothSolver:  Solving for Uy, Initial residual = 0.0347956, Final residual = 3.66026e-06, No Iterations 3
DICPCG:  Solving for p, Initial residual = 0.556967, Final residual = 0.0274906, No Iterations 59
time step continuity errors : sum local = 3.16634e-07, global = -2.42978e-08, cumulative = -2.75037e-08
DICPCG:  Solving for p, Initial residual = 0.219329, Final residual = 9.73938e-07, No Iterations 229
time step continuity errors : sum local = 6.71733e-12, global = -2.53136e-14, cumulative = -2.75037e-08
ExecutionTime = 0.5 s  ClockTime = 1 s

Time = 0.004

Courant Number mean: 0.00935148 max: 0.263301
smoothSolver:  Solving for Ux, Initial residual = 0.0137131, Final residual = 2.38895e-06, No Iterations 3
smoothSolver:  Solving for Uy, Initial residual = 0.0169261, Final residual = 3.11668e-06, No Iterations 3
DICPCG:  Solving for p, Initial residual = 0.271614, Final residual = 0.0133663, No Iterations 39
time step continuity errors : sum local = 8.1616e-08, global = 5.6287e-09, cumulative = -2.1875e-08
DICPCG:  Solving for p, Initial residual = 0.0726611, Final residual = 9.1735e-07, No Iterations 217
time step continuity errors : sum local = 4.39494e-12, global = -2.23899e-14, cumulative = -2.1875e-08
ExecutionTime = 0.6 s  ClockTime = 1 s

Time = 0.005

Courant Number mean: 0.00937257 max: 0.280588
smoothSolver:  Solving for Ux, Initial residual = 0.0106595, Final residual = 2.13971e-06, No Iterations 3
smoothSolver:  Solving for Uy, Initial residual = 0.0128499, Final residual = 2.76447e-06, No Iterations 3
DICPCG:  Solving for p, Initial residual = 0.15168, Final residual = 0.0070178, No Iterations 43
time step continuity errors : sum local = 2.82915e-08, global = 1.80499e-09, cumulative = -2.007e-08
DICPCG:  Solving for p, Initial residual = 0.0331822, Final residual = 8.64886e-07, No Iterations 210
time step continuity errors : sum local = 3.16317e-12, global = 1.88071e-15, cumulative = -2.007e-08
ExecutionTime = 0.69 s  ClockTime = 1 s

Time = 0.006

Courant Number mean: 0.00938963 max: 0.293017
smoothSolver:  Solving for Ux, Initial residual = 0.0090509, Final residual = 1.95936e-06, No Iterations 3
smoothSolver:  Solving for Uy, Initial residual = 0.0105474, Final residual = 2.49042e-06, No Iterations 3
DICPCG:  Solving for p, Initial residual = 0.109187, Final residual = 0.00517075, No Iterations 56
time step continuity errors : sum local = 1.75227e-08, global = 1.88793e-09, cumulative = -1.81821e-08
DICPCG:  Solving for p, Initial residual = 0.0241851, Final residual = 9.45664e-07, No Iterations 201
time step continuity errors : sum local = 3.08351e-12, global = 2.09035e-14, cumulative = -1.81821e-08
ExecutionTime = 0.79 s  ClockTime = 1 s

Time = 0.007

Courant Number mean: 0.0094045 max: 0.30219
smoothSolver:  Solving for Ux, Initial residual = 0.00787912, Final residual = 1.81558e-06, No Iterations 3
smoothSolver:  Solving for Uy, Initial residual = 0.00894283, Final residual = 2.26708e-06, No Iterations 3
DICPCG:  Solving for p, Initial residual = 0.0865042, Final residual = 0.00412423, No Iterations 56
time step continuity errors : sum local = 1.27249e-08, global = 1.38775e-09, cumulative = -1.67943e-08
DICPCG:  Solving for p, Initial residual = 0.0193963, Final residual = 9.34284e-07, No Iterations 202
time step continuity errors : sum local = 2.83399e-12, global = 3.52682e-14, cumulative = -1.67943e-08
ExecutionTime = 0.88 s  ClockTime = 1 s

Time = 0.008

Courant Number mean: 0.00941906 max: 0.309137
smoothSolver:  Solving for Ux, Initial residual = 0.00699592, Final residual = 1.69752e-06, No Iterations 3
smoothSolver:  Solving for Uy, Initial residual = 0.00779248, Final residual = 2.08419e-06, No Iterations 3
DICPCG:  Solving for p, Initial residual = 0.0729952, Final residual = 0.00359001, No Iterations 55
time step continuity errors : sum local = 1.04879e-08, global = 1.07219e-09, cumulative = -1.57221e-08
DICPCG:  Solving for p, Initial residual = 0.0163317, Final residual = 9.16623e-07, No Iterations 206
time step continuity errors : sum local = 2.66162e-12, global = 1.52859e-14, cumulative = -1.57221e-08
ExecutionTime = 0.98 s  ClockTime = 2 s

Time = 0.009

Courant Number mean: 0.00943268 max: 0.314536
smoothSolver:  Solving for Ux, Initial residual = 0.00631605, Final residual = 1.59811e-06, No Iterations 3
smoothSolver:  Solving for Uy, Initial residual = 0.00693563, Final residual = 1.9311e-06, No Iterations 3
DICPCG:  Solving for p, Initial residual = 0.0617776, Final residual = 0.00284294, No Iterations 55
time step continuity errors : sum local = 8.05085e-09, global = 8.45288e-10, cumulative = -1.48768e-08
DICPCG:  Solving for p, Initial residual = 0.0138103, Final residual = 9.38951e-07, No Iterations 205
time step continuity errors : sum local = 2.66143e-12, global = 1.44392e-14, cumulative = -1.48768e-08
ExecutionTime = 1.07 s  ClockTime = 2 s

Time = 0.01

Courant Number mean: 0.00944453 max: 0.318833
smoothSolver:  Solving for Ux, Initial residual = 0.0057777, Final residual = 1.51319e-06, No Iterations 3
smoothSolver:  Solving for Uy, Initial residual = 0.00627476, Final residual = 1.80063e-06, No Iterations 3
DICPCG:  Solving for p, Initial residual = 0.0520848, Final residual = 0.00256477, No Iterations 54
time step continuity errors : sum local = 7.14135e-09, global = 6.6884e-10, cumulative = -1.4208e-08
DICPCG:  Solving for p, Initial residual = 0.0119532, Final residual = 9.91623e-07, No Iterations 204
time step continuity errors : sum local = 2.7702e-12, global = 9.8719e-15, cumulative = -1.4208e-08
ExecutionTime = 1.16 s  ClockTime = 2 s

Time = 0.011

Courant Number mean: 0.00945503 max: 0.322332
smoothSolver:  Solving for Ux, Initial residual = 0.00534036, Final residual = 1.43855e-06, No Iterations 3
smoothSolver:  Solving for Uy, Initial residual = 0.00574391, Final residual = 1.68816e-06, No Iterations 3
DICPCG:  Solving for p, Initial residual = 0.0439756, Final residual = 0.00210648, No Iterations 54
time step continuity errors : sum local = 5.80858e-09, global = 5.40817e-10, cumulative = -1.36671e-08
DICPCG:  Solving for p, Initial residual = 0.010362, Final residual = 9.88451e-07, No Iterations 202
time step continuity errors : sum local = 2.73718e-12, global = 1.98118e-14, cumulative = -1.36671e-08
ExecutionTime = 1.26 s  ClockTime = 2 s

Time = 0.012

Courant Number mean: 0.0094645 max: 0.325239
smoothSolver:  Solving for Ux, Initial residual = 0.00498055, Final residual = 1.37227e-06, No Iterations 3
smoothSolver:  Solving for Uy, Initial residual = 0.00530859, Final residual = 1.58998e-06, No Iterations 3
DICPCG:  Solving for p, Initial residual = 0.0375376, Final residual = 0.0017672, No Iterations 54
time step continuity errors : sum local = 4.84599e-09, global = 4.41735e-10, cumulative = -1.32254e-08
DICPCG:  Solving for p, Initial residual = 0.00910557, Final residual = 9.98578e-07, No Iterations 197
time step continuity errors : sum local = 2.75013e-12, global = 2.40843e-14, cumulative = -1.32254e-08
ExecutionTime = 1.36 s  ClockTime = 2 s

Time = 0.013

Courant Number mean: 0.00947317 max: 0.327697
smoothSolver:  Solving for Ux, Initial residual = 0.0046784, Final residual = 1.31286e-06, No Iterations 3
smoothSolver:  Solving for Uy, Initial residual = 0.00494614, Final residual = 1.50327e-06, No Iterations 3
DICPCG:  Solving for p, Initial residual = 0.0325125, Final residual = 0.00148985, No Iterations 54
time step continuity errors : sum local = 4.07375e-09, global = 3.64245e-10, cumulative = -1.28611e-08
DICPCG:  Solving for p, Initial residual = 0.00810772, Final residual = 9.49895e-07, No Iterations 196
time step continuity errors : sum local = 2.60872e-12, global = 2.0673e-14, cumulative = -1.28611e-08
ExecutionTime = 1.45 s  ClockTime = 2 s

Time = 0.014

Courant Number mean: 0.00948123 max: 0.329809
smoothSolver:  Solving for Ux, Initial residual = 0.00441963, Final residual = 1.2592e-06, No Iterations 3
smoothSolver:  Solving for Uy, Initial residual = 0.0046393, Final residual = 1.42577e-06, No Iterations 3
DICPCG:  Solving for p, Initial residual = 0.0285406, Final residual = 0.00126911, No Iterations 54
time step continuity errors : sum local = 3.46693e-09, global = 3.0271e-10, cumulative = -1.25584e-08
DICPCG:  Solving for p, Initial residual = 0.00729748, Final residual = 9.67283e-07, No Iterations 195
time step continuity errors : sum local = 2.65378e-12, global = 1.10662e-14, cumulative = -1.25584e-08
ExecutionTime = 1.54 s  ClockTime = 2 s

Time = 0.015

Courant Number mean: 0.00948884 max: 0.331648
smoothSolver:  Solving for Ux, Initial residual = 0.00419409, Final residual = 1.20947e-06, No Iterations 3
smoothSolver:  Solving for Uy, Initial residual = 0.00437611, Final residual = 1.35598e-06, No Iterations 3
DICPCG:  Solving for p, Initial residual = 0.0252417, Final residual = 0.00125524, No Iterations 53
time step continuity errors : sum local = 3.431e-09, global = 2.51002e-10, cumulative = -1.23074e-08
DICPCG:  Solving for p, Initial residual = 0.00671707, Final residual = 9.93498e-07, No Iterations 194
time step continuity errors : sum local = 2.72741e-12, global = -4.41582e-15, cumulative = -1.23074e-08
ExecutionTime = 1.63 s  ClockTime = 2 s

Time = 0.016

Courant Number mean: 0.00949612 max: 0.333269
smoothSolver:  Solving for Ux, Initial residual = 0.00398929, Final residual = 1.16101e-06, No Iterations 3
smoothSolver:  Solving for Uy, Initial residual = 0.00414734, Final residual = 1.29288e-06, No Iterations 3
DICPCG:  Solving for p, Initial residual = 0.0225641, Final residual = 0.00109468, No Iterations 53
time step continuity errors : sum local = 2.99729e-09, global = 2.09847e-10, cumulative = -1.20975e-08
DICPCG:  Solving for p, Initial residual = 0.0061594, Final residual = 8.94331e-07, No Iterations 194
time step continuity errors : sum local = 2.45913e-12, global = -7.68856e-15, cumulative = -1.20975e-08
ExecutionTime = 1.72 s  ClockTime = 2 s

Time = 0.017

Courant Number mean: 0.00950321 max: 0.334711
smoothSolver:  Solving for Ux, Initial residual = 0.00374598, Final residual = 1.09774e-06, No Iterations 3
smoothSolver:  Solving for Uy, Initial residual = 0.00394643, Final residual = 1.23532e-06, No Iterations 3
DICPCG:  Solving for p, Initial residual = 0.0202989, Final residual = 0.00094744, No Iterations 53
time step continuity errors : sum local = 2.60064e-09, global = 1.77314e-10, cumulative = -1.19202e-08
DICPCG:  Solving for p, Initial residual = 0.00567741, Final residual = 9.36611e-07, No Iterations 193
time step continuity errors : sum local = 2.58145e-12, global = -1.42764e-14, cumulative = -1.19202e-08
ExecutionTime = 1.8 s  ClockTime = 2 s

Time = 0.018

Courant Number mean: 0.00951034 max: 0.336006
smoothSolver:  Solving for Ux, Initial residual = 0.00352437, Final residual = 1.03813e-06, No Iterations 3
smoothSolver:  Solving for Uy, Initial residual = 0.00376861, Final residual = 1.18259e-06, No Iterations 3
DICPCG:  Solving for p, Initial residual = 0.0184234, Final residual = 0.000843655, No Iterations 53
time step continuity errors : sum local = 2.32283e-09, global = 1.50434e-10, cumulative = -1.17698e-08
DICPCG:  Solving for p, Initial residual = 0.00527433, Final residual = 9.68023e-07, No Iterations 192
time step continuity errors : sum local = 2.6758e-12, global = -1.94614e-14, cumulative = -1.17698e-08
ExecutionTime = 1.93 s  ClockTime = 3 s

Time = 0.019

Courant Number mean: 0.00951753 max: 0.337177
smoothSolver:  Solving for Ux, Initial residual = 0.00332635, Final residual = 9.83435e-07, No Iterations 3
smoothSolver:  Solving for Uy, Initial residual = 0.00360977, Final residual = 1.13409e-06, No Iterations 3
DICPCG:  Solving for p, Initial residual = 0.016773, Final residual = 0.000761005, No Iterations 53
time step continuity errors : sum local = 2.10258e-09, global = 1.28405e-10, cumulative = -1.16414e-08
DICPCG:  Solving for p, Initial residual = 0.00492491, Final residual = 9.20501e-07, No Iterations 192
time step continuity errors : sum local = 2.55302e-12, global = -2.034e-14, cumulative = -1.16414e-08
ExecutionTime = 2.03 s  ClockTime = 3 s

Time = 0.02

Courant Number mean: 0.00952433 max: 0.338243
smoothSolver:  Solving for Ux, Initial residual = 0.00314988, Final residual = 9.3332e-07, No Iterations 3
smoothSolver:  Solving for Uy, Initial residual = 0.00346693, Final residual = 1.08931e-06, No Iterations 3
DICPCG:  Solving for p, Initial residual = 0.0153233, Final residual = 0.0006898, No Iterations 53
time step continuity errors : sum local = 1.91305e-09, global = 1.10138e-10, cumulative = -1.15313e-08
DICPCG:  Solving for p, Initial residual = 0.00461586, Final residual = 9.62215e-07, No Iterations 191
time step continuity errors : sum local = 2.67845e-12, global = -1.97695e-14, cumulative = -1.15313e-08
ExecutionTime = 2.13 s  ClockTime = 3 s

Time = 0.021

Courant Number mean: 0.0095308 max: 0.339219
smoothSolver:  Solving for Ux, Initial residual = 0.00299246, Final residual = 8.87341e-07, No Iterations 3
smoothSolver:  Solving for Uy, Initial residual = 0.00333774, Final residual = 1.04791e-06, No Iterations 3
DICPCG:  Solving for p, Initial residual = 0.0141202, Final residual = 0.000620208, No Iterations 53
time step continuity errors : sum local = 1.72694e-09, global = 9.54427e-11, cumulative = -1.14359e-08
DICPCG:  Solving for p, Initial residual = 0.00433846, Final residual = 9.22052e-07, No Iterations 191
time step continuity errors : sum local = 2.57663e-12, global = -1.93516e-14, cumulative = -1.14359e-08
ExecutionTime = 2.24 s  ClockTime = 3 s

Time = 0.022

Courant Number mean: 0.00953697 max: 0.340118
smoothSolver:  Solving for Ux, Initial residual = 0.0028508, Final residual = 8.45046e-07, No Iterations 3
smoothSolver:  Solving for Uy, Initial residual = 0.00322046, Final residual = 1.00941e-06, No Iterations 3
DICPCG:  Solving for p, Initial residual = 0.0130587, Final residual = 0.000563602, No Iterations 53
time step continuity errors : sum local = 1.57583e-09, global = 8.30126e-11, cumulative = -1.13529e-08
DICPCG:  Solving for p, Initial residual = 0.00409669, Final residual = 9.68373e-07, No Iterations 190
time step continuity errors : sum local = 2.71696e-12, global = -1.78598e-14, cumulative = -1.13529e-08
ExecutionTime = 2.37 s  ClockTime = 3 s

Time = 0.023

Courant Number mean: 0.00954288 max: 0.340949
smoothSolver:  Solving for Ux, Initial residual = 0.00272279, Final residual = 8.06108e-07, No Iterations 3
smoothSolver:  Solving for Uy, Initial residual = 0.00311335, Final residual = 9.73497e-07, No Iterations 3
DICPCG:  Solving for p, Initial residual = 0.0121092, Final residual = 0.000527793, No Iterations 53
time step continuity errors : sum local = 1.48179e-09, global = 7.27204e-11, cumulative = -1.12802e-08
DICPCG:  Solving for p, Initial residual = 0.00387917, Final residual = 9.29041e-07, No Iterations 190
time step continuity errors : sum local = 2.61678e-12, global = -1.8207e-14, cumulative = -1.12802e-08
ExecutionTime = 2.48 s  ClockTime = 3 s

Time = 0.024

Courant Number mean: 0.00954857 max: 0.341721
smoothSolver:  Solving for Ux, Initial residual = 0.00260658, Final residual = 9.80713e-06, No Iterations 2
smoothSolver:  Solving for Uy, Initial residual = 0.0030148, Final residual = 9.39902e-07, No Iterations 3
DICPCG:  Solving for p, Initial residual = 0.0112595, Final residual = 0.000506049, No Iterations 53
time step continuity errors : sum local = 1.42634e-09, global = 6.52397e-11, cumulative = -1.1215e-08
DICPCG:  Solving for p, Initial residual = 0.00378315, Final residual = 9.09786e-07, No Iterations 192
time step continuity errors : sum local = 2.57205e-12, global = -1.82102e-14, cumulative = -1.1215e-08
ExecutionTime = 2.58 s  ClockTime = 3 s

Time = 0.025

Courant Number mean: 0.00955407 max: 0.342438
smoothSolver:  Solving for Ux, Initial residual = 0.00250014, Final residual = 9.39435e-06, No Iterations 2
smoothSolver:  Solving for Uy, Initial residual = 0.00292323, Final residual = 9.08361e-07, No Iterations 3
DICPCG:  Solving for p, Initial residual = 0.0106152, Final residual = 0.000472473, No Iterations 53
time step continuity errors : sum local = 1.33702e-09, global = 5.73997e-11, cumulative = -1.11576e-08
DICPCG:  Solving for p, Initial residual = 0.00362513, Final residual = 8.71649e-07, No Iterations 192
time step continuity errors : sum local = 2.474e-12, global = -1.32832e-14, cumulative = -1.11576e-08
ExecutionTime = 2.68 s  ClockTime = 3 s

Time = 0.026

Courant Number mean: 0.00955939 max: 0.343109
smoothSolver:  Solving for Ux, Initial residual = 0.00240345, Final residual = 9.01179e-06, No Iterations 2
smoothSolver:  Solving for Uy, Initial residual = 0.00283896, Final residual = 8.78791e-07, No Iterations 3
DICPCG:  Solving for p, Initial residual = 0.00999831, Final residual = 0.000441977, No Iterations 53
time step continuity errors : sum local = 1.25597e-09, global = 5.14863e-11, cumulative = -1.11061e-08
DICPCG:  Solving for p, Initial residual = 0.00346929, Final residual = 8.61442e-07, No Iterations 192
time step continuity errors : sum local = 2.45547e-12, global = -8.88801e-15, cumulative = -1.11061e-08
ExecutionTime = 2.8 s  ClockTime = 4 s

Time = 0.027

Courant Number mean: 0.00956457 max: 0.343738
smoothSolver:  Solving for Ux, Initial residual = 0.00231481, Final residual = 8.65757e-06, No Iterations 2
smoothSolver:  Solving for Uy, Initial residual = 0.00276064, Final residual = 8.50989e-07, No Iterations 3
DICPCG:  Solving for p, Initial residual = 0.00944589, Final residual = 0.000409341, No Iterations 53
time step continuity errors : sum local = 1.16819e-09, global = 4.67891e-11, cumulative = -1.10593e-08
DICPCG:  Solving for p, Initial residual = 0.00332076, Final residual = 8.4757e-07, No Iterations 192
time step continuity errors : sum local = 2.4258e-12, global = -5.82976e-15, cumulative = -1.10593e-08
ExecutionTime = 2.91 s  ClockTime = 4 s

Time = 0.028

Courant Number mean: 0.00956962 max: 0.34433
smoothSolver:  Solving for Ux, Initial residual = 0.00223281, Final residual = 8.32703e-06, No Iterations 2
smoothSolver:  Solving for Uy, Initial residual = 0.0026878, Final residual = 8.24748e-07, No Iterations 3
DICPCG:  Solving for p, Initial residual = 0.00894491, Final residual = 0.000388355, No Iterations 53
time step continuity errors : sum local = 1.11288e-09, global = 4.2616e-11, cumulative = -1.10167e-08
DICPCG:  Solving for p, Initial residual = 0.00319288, Final residual = 9.71046e-07, No Iterations 191
time step continuity errors : sum local = 2.79039e-12, global = -2.72123e-15, cumulative = -1.10167e-08
ExecutionTime = 3.01 s  ClockTime = 4 s

Time = 0.029

Courant Number mean: 0.00957457 max: 0.344887
smoothSolver:  Solving for Ux, Initial residual = 0.00215688, Final residual = 8.01823e-06, No Iterations 2
smoothSolver:  Solving for Uy, Initial residual = 0.00261958, Final residual = 7.99932e-07, No Iterations 3
DICPCG:  Solving for p, Initial residual = 0.00847634, Final residual = 0.000363306, No Iterations 53
time step continuity errors : sum local = 1.0453e-09, global = 3.92225e-11, cumulative = -1.09775e-08
DICPCG:  Solving for p, Initial residual = 0.0030715, Final residual = 9.61294e-07, No Iterations 191
time step continuity errors : sum local = 2.77318e-12, global = -6.85899e-17, cumulative = -1.09775e-08
ExecutionTime = 3.1 s  ClockTime = 4 s

Time = 0.03

Courant Number mean: 0.00957942 max: 0.345414
smoothSolver:  Solving for Ux, Initial residual = 0.00208636, Final residual = 7.72951e-06, No Iterations 2
smoothSolver:  Solving for Uy, Initial residual = 0.00255551, Final residual = 9.84727e-06, No Iterations 2
DICPCG:  Solving for p, Initial residual = 0.00797518, Final residual = 0.000338344, No Iterations 53
time step continuity errors : sum local = 9.77295e-10, global = 3.73558e-11, cumulative = -1.09401e-08
DICPCG:  Solving for p, Initial residual = 0.00287289, Final residual = 9.59372e-07, No Iterations 185
time step continuity errors : sum local = 2.77819e-12, global = 6.8502e-16, cumulative = -1.09401e-08
ExecutionTime = 3.2 s  ClockTime = 4 s

Time = 0.031

Courant Number mean: 0.00958422 max: 0.345912
smoothSolver:  Solving for Ux, Initial residual = 0.00202053, Final residual = 7.4584e-06, No Iterations 2
smoothSolver:  Solving for Uy, Initial residual = 0.00249519, Final residual = 9.58092e-06, No Iterations 2
DICPCG:  Solving for p, Initial residual = 0.00760286, Final residual = 0.000328423, No Iterations 53
time step continuity errors : sum local = 9.52246e-10, global = 3.50307e-11, cumulative = -1.09051e-08
DICPCG:  Solving for p, Initial residual = 0.00278007, Final residual = 9.69391e-07, No Iterations 185
time step continuity errors : sum local = 2.81757e-12, global = -5.67168e-15, cumulative = -1.09051e-08
ExecutionTime = 3.29 s  ClockTime = 4 s

Time = 0.032

Courant Number mean: 0.00958897 max: 0.346385
smoothSolver:  Solving for Ux, Initial residual = 0.00195934, Final residual = 7.20439e-06, No Iterations 2
smoothSolver:  Solving for Uy, Initial residual = 0.00243839, Final residual = 9.32709e-06, No Iterations 2
DICPCG:  Solving for p, Initial residual = 0.00727977, Final residual = 0.000309938, No Iterations 53
time step continuity errors : sum local = 9.02007e-10, global = 3.28654e-11, cumulative = -1.08723e-08
DICPCG:  Solving for p, Initial residual = 0.00268989, Final residual = 9.62415e-07, No Iterations 185
time step continuity errors : sum local = 2.80757e-12, global = -6.38549e-15, cumulative = -1.08723e-08
ExecutionTime = 3.38 s  ClockTime = 4 s

Time = 0.033

Courant Number mean: 0.00959372 max: 0.346835
smoothSolver:  Solving for Ux, Initial residual = 0.00190234, Final residual = 6.96594e-06, No Iterations 2
smoothSolver:  Solving for Uy, Initial residual = 0.00238468, Final residual = 9.08537e-06, No Iterations 2
DICPCG:  Solving for p, Initial residual = 0.00698977, Final residual = 0.000300542, No Iterations 53
time step continuity errors : sum local = 8.77963e-10, global = 3.08767e-11, cumulative = -1.08414e-08
DICPCG:  Solving for p, Initial residual = 0.00260496, Final residual = 9.75695e-07, No Iterations 184
time step continuity errors : sum local = 2.85695e-12, global = -7.8844e-15, cumulative = -1.08414e-08
ExecutionTime = 3.47 s  ClockTime = 4 s

Time = 0.034

Courant Number mean: 0.00959857 max: 0.347262
smoothSolver:  Solving for Ux, Initial residual = 0.00184885, Final residual = 6.74204e-06, No Iterations 2
smoothSolver:  Solving for Uy, Initial residual = 0.00233394, Final residual = 8.85509e-06, No Iterations 2
DICPCG:  Solving for p, Initial residual = 0.00673205, Final residual = 0.000287561, No Iterations 53
time step continuity errors : sum local = 8.43203e-10, global = 2.91434e-11, cumulative = -1.08122e-08
DICPCG:  Solving for p, Initial residual = 0.00252505, Final residual = 9.70777e-07, No Iterations 184
time step continuity errors : sum local = 2.85331e-12, global = -8.74307e-15, cumulative = -1.08123e-08
ExecutionTime = 3.56 s  ClockTime = 4 s

Time = 0.035

Courant Number mean: 0.00960333 max: 0.34767
smoothSolver:  Solving for Ux, Initial residual = 0.00179849, Final residual = 6.5307e-06, No Iterations 2
smoothSolver:  Solving for Uy, Initial residual = 0.0022858, Final residual = 8.63543e-06, No Iterations 2
DICPCG:  Solving for p, Initial residual = 0.00646029, Final residual = 0.00027745, No Iterations 53
time step continuity errors : sum local = 8.16659e-10, global = 2.79386e-11, cumulative = -1.07843e-08
DICPCG:  Solving for p, Initial residual = 0.00244804, Final residual = 9.3188e-07, No Iterations 184
time step continuity errors : sum local = 2.74934e-12, global = -9.76528e-15, cumulative = -1.07843e-08
ExecutionTime = 3.65 s  ClockTime = 4 s

Time = 0.036

Courant Number mean: 0.00960797 max: 0.34806
smoothSolver:  Solving for Ux, Initial residual = 0.00175102, Final residual = 6.33076e-06, No Iterations 2
smoothSolver:  Solving for Uy, Initial residual = 0.00223999, Final residual = 8.42594e-06, No Iterations 2
DICPCG:  Solving for p, Initial residual = 0.00624562, Final residual = 0.000262772, No Iterations 53
time step continuity errors : sum local = 7.76334e-10, global = 2.67015e-11, cumulative = -1.07576e-08
DICPCG:  Solving for p, Initial residual = 0.00237575, Final residual = 9.62235e-07, No Iterations 184
time step continuity errors : sum local = 2.84926e-12, global = -9.80182e-15, cumulative = -1.07576e-08
ExecutionTime = 3.74 s  ClockTime = 5 s

Time = 0.037

Courant Number mean: 0.00961251 max: 0.348432
smoothSolver:  Solving for Ux, Initial residual = 0.00170625, Final residual = 6.14159e-06, No Iterations 2
smoothSolver:  Solving for Uy, Initial residual = 0.00219628, Final residual = 8.22587e-06, No Iterations 2
DICPCG:  Solving for p, Initial residual = 0.00602527, Final residual = 0.000254509, No Iterations 53
time step continuity errors : sum local = 7.54622e-10, global = 2.55513e-11, cumulative = -1.07321e-08
DICPCG:  Solving for p, Initial residual = 0.00230539, Final residual = 9.93841e-07, No Iterations 183
time step continuity errors : sum local = 2.95309e-12, global = -9.67428e-15, cumulative = -1.07321e-08
ExecutionTime = 3.82 s  ClockTime = 5 s

Time = 0.038

Courant Number mean: 0.00961694 max: 0.348789
smoothSolver:  Solving for Ux, Initial residual = 0.00166397, Final residual = 5.96236e-06, No Iterations 2
smoothSolver:  Solving for Uy, Initial residual = 0.00215457, Final residual = 8.03452e-06, No Iterations 2
DICPCG:  Solving for p, Initial residual = 0.00582323, Final residual = 0.000244933, No Iterations 53
time step continuity errors : sum local = 7.28734e-10, global = 2.45407e-11, cumulative = -1.07076e-08
DICPCG:  Solving for p, Initial residual = 0.00224217, Final residual = 9.27045e-07, No Iterations 184
time step continuity errors : sum local = 2.76392e-12, global = -6.66188e-15, cumulative = -1.07076e-08
ExecutionTime = 3.91 s  ClockTime = 5 s

Time = 0.039

Courant Number mean: 0.00962128 max: 0.349131
smoothSolver:  Solving for Ux, Initial residual = 0.00162394, Final residual = 5.79233e-06, No Iterations 2
smoothSolver:  Solving for Uy, Initial residual = 0.00211468, Final residual = 7.8511e-06, No Iterations 2
DICPCG:  Solving for p, Initial residual = 0.00564437, Final residual = 0.000235945, No Iterations 53
time step continuity errors : sum local = 7.04319e-10, global = 2.3769e-11, cumulative = -1.06838e-08
DICPCG:  Solving for p, Initial residual = 0.00218109, Final residual = 9.87514e-07, No Iterations 183
time step continuity errors : sum local = 2.95363e-12, global = -6.08744e-15, cumulative = -1.06838e-08
ExecutionTime = 4 s  ClockTime = 5 s

Time = 0.04

Courant Number mean: 0.00962554 max: 0.349459
smoothSolver:  Solving for Ux, Initial residual = 0.00158606, Final residual = 5.63081e-06, No Iterations 2
smoothSolver:  Solving for Uy, Initial residual = 0.00207649, Final residual = 7.67499e-06, No Iterations 2
DICPCG:  Solving for p, Initial residual = 0.00547255, Final residual = 0.000227959, No Iterations 53
time step continuity errors : sum local = 6.82644e-10, global = 2.30988e-11, cumulative = -1.06607e-08
DICPCG:  Solving for p, Initial residual = 0.00212451, Final residual = 9.61278e-07, No Iterations 183
time step continuity errors : sum local = 2.88413e-12, global = -3.49157e-15, cumulative = -1.06607e-08
ExecutionTime = 4.08 s  ClockTime = 5 s

Time = 0.041

Courant Number mean: 0.00962971 max: 0.349774
smoothSolver:  Solving for Ux, Initial residual = 0.00155003, Final residual = 5.47732e-06, No Iterations 2
smoothSolver:  Solving for Uy, Initial residual = 0.00203996, Final residual = 7.5058e-06, No Iterations 2
DICPCG:  Solving for p, Initial residual = 0.00530639, Final residual = 0.000223649, No Iterations 53
time step continuity errors : sum local = 6.71786e-10, global = 2.21633e-11, cumulative = -1.06385e-08
DICPCG:  Solving for p, Initial residual = 0.00207222, Final residual = 9.88251e-07, No Iterations 182
time step continuity errors : sum local = 2.97388e-12, global = -2.06132e-15, cumulative = -1.06385e-08
ExecutionTime = 4.18 s  ClockTime = 5 s

Time = 0.042

Courant Number mean: 0.00963382 max: 0.350078
smoothSolver:  Solving for Ux, Initial residual = 0.00151566, Final residual = 5.33123e-06, No Iterations 2
smoothSolver:  Solving for Uy, Initial residual = 0.00200498, Final residual = 7.34312e-06, No Iterations 2
DICPCG:  Solving for p, Initial residual = 0.00515101, Final residual = 0.000214989, No Iterations 53
time step continuity errors : sum local = 6.47658e-10, global = 2.15595e-11, cumulative = -1.0617e-08
DICPCG:  Solving for p, Initial residual = 0.00202003, Final residual = 9.65352e-07, No Iterations 182
time step continuity errors : sum local = 2.91322e-12, global = -2.02154e-16, cumulative = -1.0617e-08
ExecutionTime = 4.26 s  ClockTime = 5 s

Time = 0.043

Courant Number mean: 0.00963785 max: 0.35037
smoothSolver:  Solving for Ux, Initial residual = 0.00148289, Final residual = 5.19198e-06, No Iterations 2
smoothSolver:  Solving for Uy, Initial residual = 0.00197134, Final residual = 7.18668e-06, No Iterations 2
DICPCG:  Solving for p, Initial residual = 0.00498275, Final residual = 0.000206651, No Iterations 53
time step continuity errors : sum local = 6.24296e-10, global = 2.11631e-11, cumulative = -1.05958e-08
DICPCG:  Solving for p, Initial residual = 0.00196803, Final residual = 9.88324e-07, No Iterations 181
time step continuity errors : sum local = 2.9908e-12, global = 5.08746e-15, cumulative = -1.05958e-08
ExecutionTime = 4.35 s  ClockTime = 5 s

Time = 0.044

Courant Number mean: 0.00964182 max: 0.350651
smoothSolver:  Solving for Ux, Initial residual = 0.00145166, Final residual = 5.05914e-06, No Iterations 2
smoothSolver:  Solving for Uy, Initial residual = 0.00193895, Final residual = 7.03629e-06, No Iterations 2
DICPCG:  Solving for p, Initial residual = 0.0048648, Final residual = 0.000235098, No Iterations 52
time step continuity errors : sum local = 7.12196e-10, global = 1.84254e-11, cumulative = -1.05774e-08
DICPCG:  Solving for p, Initial residual = 0.00194438, Final residual = 9.92568e-07, No Iterations 172
time step continuity errors : sum local = 3.01188e-12, global = -2.90147e-14, cumulative = -1.05774e-08
ExecutionTime = 4.43 s  ClockTime = 5 s

Time = 0.045

Courant Number mean: 0.00964573 max: 0.350922
smoothSolver:  Solving for Ux, Initial residual = 0.00142183, Final residual = 4.93232e-06, No Iterations 2
smoothSolver:  Solving for Uy, Initial residual = 0.00190776, Final residual = 6.89146e-06, No Iterations 2
DICPCG:  Solving for p, Initial residual = 0.00474377, Final residual = 0.000234299, No Iterations 52
time step continuity errors : sum local = 7.11686e-10, global = 1.76041e-11, cumulative = -1.05598e-08
DICPCG:  Solving for p, Initial residual = 0.00190497, Final residual = 9.74782e-07, No Iterations 171
time step continuity errors : sum local = 2.96569e-12, global = -3.32971e-14, cumulative = -1.05598e-08
ExecutionTime = 4.52 s  ClockTime = 5 s

Time = 0.046

Courant Number mean: 0.0096496 max: 0.351184
smoothSolver:  Solving for Ux, Initial residual = 0.00139333, Final residual = 4.81112e-06, No Iterations 2
smoothSolver:  Solving for Uy, Initial residual = 0.00187766, Final residual = 6.7519e-06, No Iterations 2
DICPCG:  Solving for p, Initial residual = 0.00464101, Final residual = 0.000224361, No Iterations 52
time step continuity errors : sum local = 6.83261e-10, global = 1.71421e-11, cumulative = -1.05427e-08
DICPCG:  Solving for p, Initial residual = 0.00185827, Final residual = 9.97059e-07, No Iterations 170
time step continuity errors : sum local = 3.04111e-12, global = -3.18557e-14, cumulative = -1.05427e-08
ExecutionTime = 4.6 s  ClockTime = 5 s

Time = 0.047

Courant Number mean: 0.00965342 max: 0.351438
smoothSolver:  Solving for Ux, Initial residual = 0.00136608, Final residual = 4.69517e-06, No Iterations 2
smoothSolver:  Solving for Uy, Initial residual = 0.00184857, Final residual = 6.61711e-06, No Iterations 2
DICPCG:  Solving for p, Initial residual = 0.00449989, Final residual = 0.000219727, No Iterations 52
time step continuity errors : sum local = 6.70837e-10, global = 1.68324e-11, cumulative = -1.05259e-08
DICPCG:  Solving for p, Initial residual = 0.00181587, Final residual = 9.60437e-07, No Iterations 168
time step continuity errors : sum local = 2.93674e-12, global = -1.90106e-14, cumulative = -1.05259e-08
ExecutionTime = 4.69 s  ClockTime = 6 s

Time = 0.048

Courant Number mean: 0.00965719 max: 0.351682
smoothSolver:  Solving for Ux, Initial residual = 0.00134006, Final residual = 4.58414e-06, No Iterations 2
smoothSolver:  Solving for Uy, Initial residual = 0.00182053, Final residual = 6.48694e-06, No Iterations 2
DICPCG:  Solving for p, Initial residual = 0.00440431, Final residual = 0.000210367, No Iterations 52
time step continuity errors : sum local = 6.4386e-10, global = 1.65606e-11, cumulative = -1.05094e-08
DICPCG:  Solving for p, Initial residual = 0.00177349, Final residual = 9.43748e-07, No Iterations 168
time step continuity errors : sum local = 2.89278e-12, global = -2.01107e-14, cumulative = -1.05094e-08
ExecutionTime = 4.77 s  ClockTime = 6 s

Time = 0.049

Courant Number mean: 0.00966093 max: 0.351919
smoothSolver:  Solving for Ux, Initial residual = 0.00131511, Final residual = 4.47779e-06, No Iterations 2
smoothSolver:  Solving for Uy, Initial residual = 0.00179349, Final residual = 6.36112e-06, No Iterations 2
DICPCG:  Solving for p, Initial residual = 0.0042824, Final residual = 0.000213838, No Iterations 41
time step continuity errors : sum local = 6.56099e-10, global = 2.34393e-12, cumulative = -1.0507e-08
DICPCG:  Solving for p, Initial residual = 0.00173386, Final residual = 9.23463e-07, No Iterations 170
time step continuity errors : sum local = 2.8375e-12, global = -1.25069e-14, cumulative = -1.0507e-08
ExecutionTime = 4.85 s  ClockTime = 6 s

Time = 0.05

Courant Number mean: 0.00966463 max: 0.352149
smoothSolver:  Solving for Ux, Initial residual = 0.00129104, Final residual = 4.37593e-06, No Iterations 2
smoothSolver:  Solving for Uy, Initial residual = 0.00176733, Final residual = 6.2394e-06, No Iterations 2
DICPCG:  Solving for p, Initial residual = 0.00420223, Final residual = 0.00020829, No Iterations 41
time step continuity errors : sum local = 6.40638e-10, global = 2.41253e-12, cumulative = -1.05046e-08
DICPCG:  Solving for p, Initial residual = 0.00169674, Final residual = 9.86639e-07, No Iterations 170
time step continuity errors : sum local = 3.03896e-12, global = -1.57183e-14, cumulative = -1.05047e-08
ExecutionTime = 4.93 s  ClockTime = 6 s

Time = 0.051

Courant Number mean: 0.00966831 max: 0.352371
smoothSolver:  Solving for Ux, Initial residual = 0.00126799, Final residual = 4.27823e-06, No Iterations 2
smoothSolver:  Solving for Uy, Initial residual = 0.001742, Final residual = 6.12167e-06, No Iterations 2
DICPCG:  Solving for p, Initial residual = 0.00410595, Final residual = 0.000205214, No Iterations 40
time step continuity errors : sum local = 6.32693e-10, global = 2.03174e-12, cumulative = -1.05026e-08
DICPCG:  Solving for p, Initial residual = 0.00165958, Final residual = 9.63566e-07, No Iterations 170
time step continuity errors : sum local = 2.97491e-12, global = -1.77149e-14, cumulative = -1.05026e-08
ExecutionTime = 5.01 s  ClockTime = 6 s

Time = 0.052

Courant Number mean: 0.00967197 max: 0.352586
smoothSolver:  Solving for Ux, Initial residual = 0.00124582, Final residual = 4.18434e-06, No Iterations 2
smoothSolver:  Solving for Uy, Initial residual = 0.00171743, Final residual = 6.00781e-06, No Iterations 2
DICPCG:  Solving for p, Initial residual = 0.00399852, Final residual = 0.000198899, No Iterations 40
time step continuity errors : sum local = 6.14656e-10, global = 2.01238e-12, cumulative = -1.05006e-08
DICPCG:  Solving for p, Initial residual = 0.00162232, Final residual = 9.96612e-07, No Iterations 170
time step continuity errors : sum local = 3.084e-12, global = -1.76592e-14, cumulative = -1.05006e-08
ExecutionTime = 5.09 s  ClockTime = 6 s

Time = 0.053

Courant Number mean: 0.00967562 max: 0.352796
smoothSolver:  Solving for Ux, Initial residual = 0.0012245, Final residual = 4.09406e-06, No Iterations 2
smoothSolver:  Solving for Uy, Initial residual = 0.00169362, Final residual = 5.89755e-06, No Iterations 2
DICPCG:  Solving for p, Initial residual = 0.00391599, Final residual = 0.00019461, No Iterations 40
time step continuity errors : sum local = 6.02759e-10, global = 2.12162e-12, cumulative = -1.04985e-08
DICPCG:  Solving for p, Initial residual = 0.00158981, Final residual = 9.22577e-07, No Iterations 170
time step continuity errors : sum local = 2.86119e-12, global = -1.86543e-14, cumulative = -1.04985e-08
ExecutionTime = 5.17 s  ClockTime = 6 s

Time = 0.054

Courant Number mean: 0.00967929 max: 0.352999
smoothSolver:  Solving for Ux, Initial residual = 0.00120395, Final residual = 4.00718e-06, No Iterations 2
smoothSolver:  Solving for Uy, Initial residual = 0.0016705, Final residual = 5.7908e-06, No Iterations 2
DICPCG:  Solving for p, Initial residual = 0.00383665, Final residual = 0.000188174, No Iterations 40
time step continuity errors : sum local = 5.84096e-10, global = 2.20077e-12, cumulative = -1.04963e-08
DICPCG:  Solving for p, Initial residual = 0.00155621, Final residual = 9.59562e-07, No Iterations 170
time step continuity errors : sum local = 2.98227e-12, global = -1.92664e-14, cumulative = -1.04964e-08
ExecutionTime = 5.25 s  ClockTime = 6 s

Time = 0.055

Courant Number mean: 0.00968299 max: 0.353196
smoothSolver:  Solving for Ux, Initial residual = 0.00118415, Final residual = 3.92352e-06, No Iterations 2
smoothSolver:  Solving for Uy, Initial residual = 0.00164806, Final residual = 5.68738e-06, No Iterations 2
DICPCG:  Solving for p, Initial residual = 0.00375405, Final residual = 0.000185221, No Iterations 40
time step continuity errors : sum local = 5.76156e-10, global = 2.29349e-12, cumulative = -1.04941e-08
DICPCG:  Solving for p, Initial residual = 0.00152672, Final residual = 9.66091e-07, No Iterations 170
time step continuity errors : sum local = 3.0089e-12, global = -1.86223e-14, cumulative = -1.04941e-08
ExecutionTime = 5.33 s  ClockTime = 6 s

Time = 0.056

Courant Number mean: 0.00968665 max: 0.353388
smoothSolver:  Solving for Ux, Initial residual = 0.00116507, Final residual = 3.84286e-06, No Iterations 2
smoothSolver:  Solving for Uy, Initial residual = 0.00162628, Final residual = 5.58702e-06, No Iterations 2
DICPCG:  Solving for p, Initial residual = 0.00368504, Final residual = 0.000179618, No Iterations 40
time step continuity errors : sum local = 5.5986e-10, global = 2.35047e-12, cumulative = -1.04917e-08
DICPCG:  Solving for p, Initial residual = 0.00149654, Final residual = 9.67651e-07, No Iterations 170
time step continuity errors : sum local = 3.0196e-12, global = -2.13771e-14, cumulative = -1.04918e-08
ExecutionTime = 5.41 s  ClockTime = 6 s

Time = 0.057

Courant Number mean: 0.00969026 max: 0.353574
smoothSolver:  Solving for Ux, Initial residual = 0.00114669, Final residual = 3.7651e-06, No Iterations 2
smoothSolver:  Solving for Uy, Initial residual = 0.00160512, Final residual = 5.4896e-06, No Iterations 2
DICPCG:  Solving for p, Initial residual = 0.00357774, Final residual = 0.000177601, No Iterations 40
time step continuity errors : sum local = 5.54653e-10, global = 2.35784e-12, cumulative = -1.04894e-08
DICPCG:  Solving for p, Initial residual = 0.00146794, Final residual = 9.7406e-07, No Iterations 170
time step continuity errors : sum local = 3.04554e-12, global = -2.13448e-14, cumulative = -1.04894e-08
ExecutionTime = 5.49 s  ClockTime = 6 s

Time = 0.058

Courant Number mean: 0.00969382 max: 0.353755
smoothSolver:  Solving for Ux, Initial residual = 0.00112896, Final residual = 3.69014e-06, No Iterations 2
smoothSolver:  Solving for Uy, Initial residual = 0.00158464, Final residual = 5.39501e-06, No Iterations 2
DICPCG:  Solving for p, Initial residual = 0.00350209, Final residual = 0.000171356, No Iterations 40
time step continuity errors : sum local = 5.36195e-10, global = 2.44665e-12, cumulative = -1.0487e-08
DICPCG:  Solving for p, Initial residual = 0.00143675, Final residual = 9.16472e-07, No Iterations 170
time step continuity errors : sum local = 2.87105e-12, global = -2.29753e-14, cumulative = -1.0487e-08
ExecutionTime = 5.57 s  ClockTime = 7 s

Time = 0.059

Courant Number mean: 0.00969733 max: 0.353932
smoothSolver:  Solving for Ux, Initial residual = 0.00111182, Final residual = 3.61789e-06, No Iterations 2
smoothSolver:  Solving for Uy, Initial residual = 0.0015647, Final residual = 5.30308e-06, No Iterations 2
DICPCG:  Solving for p, Initial residual = 0.00344773, Final residual = 0.000168874, No Iterations 40
time step continuity errors : sum local = 5.2942e-10, global = 2.46785e-12, cumulative = -1.04845e-08
DICPCG:  Solving for p, Initial residual = 0.00141248, Final residual = 9.45816e-07, No Iterations 170
time step continuity errors : sum local = 2.96833e-12, global = -2.2073e-14, cumulative = -1.04845e-08
ExecutionTime = 5.65 s  ClockTime = 7 s

Time = 0.06

Courant Number mean: 0.0097008 max: 0.354104
smoothSolver:  Solving for Ux, Initial residual = 0.00109524, Final residual = 3.54825e-06, No Iterations 2
smoothSolver:  Solving for Uy, Initial residual = 0.00154526, Final residual = 5.21376e-06, No Iterations 2
DICPCG:  Solving for p, Initial residual = 0.00335725, Final residual = 0.000164964, No Iterations 40
time step continuity errors : sum local = 5.18099e-10, global = 2.5003e-12, cumulative = -1.0482e-08
DICPCG:  Solving for p, Initial residual = 0.00138459, Final residual = 9.27981e-07, No Iterations 170
time step continuity errors : sum local = 2.91763e-12, global = -2.29038e-14, cumulative = -1.04821e-08
ExecutionTime = 5.72 s  ClockTime = 7 s

Time = 0.061

Courant Number mean: 0.00970423 max: 0.354272
smoothSolver:  Solving for Ux, Initial residual = 0.00107919, Final residual = 3.48092e-06, No Iterations 2
smoothSolver:  Solving for Uy, Initial residual = 0.00152636, Final residual = 5.12706e-06, No Iterations 2
DICPCG:  Solving for p, Initial residual = 0.0032967, Final residual = 0.000161325, No Iterations 40
time step continuity errors : sum local = 5.07574e-10, global = 2.49849e-12, cumulative = -1.04796e-08
DICPCG:  Solving for p, Initial residual = 0.0013613, Final residual = 9.24231e-07, No Iterations 170
time step continuity errors : sum local = 2.9109e-12, global = -2.43326e-14, cumulative = -1.04796e-08
ExecutionTime = 5.8 s  ClockTime = 7 s

Time = 0.062

Courant Number mean: 0.00970762 max: 0.354435
smoothSolver:  Solving for Ux, Initial residual = 0.00106366, Final residual = 3.41582e-06, No Iterations 2
smoothSolver:  Solving for Uy, Initial residual = 0.00150791, Final residual = 5.04268e-06, No Iterations 2
DICPCG:  Solving for p, Initial residual = 0.00323493, Final residual = 0.000158605, No Iterations 40
time step continuity errors : sum local = 4.99879e-10, global = 2.53769e-12, cumulative = -1.04771e-08
DICPCG:  Solving for p, Initial residual = 0.00133763, Final residual = 9.25071e-07, No Iterations 170
time step continuity errors : sum local = 2.91853e-12, global = -2.47281e-14, cumulative = -1.04771e-08
ExecutionTime = 5.88 s  ClockTime = 7 s

Time = 0.063

Courant Number mean: 0.00971097 max: 0.354594
smoothSolver:  Solving for Ux, Initial residual = 0.00104862, Final residual = 3.35283e-06, No Iterations 2
smoothSolver:  Solving for Uy, Initial residual = 0.00148992, Final residual = 4.96063e-06, No Iterations 2
DICPCG:  Solving for p, Initial residual = 0.00319472, Final residual = 0.000155762, No Iterations 40
time step continuity errors : sum local = 4.91765e-10, global = 2.56374e-12, cumulative = -1.04745e-08
DICPCG:  Solving for p, Initial residual = 0.00131502, Final residual = 9.37093e-07, No Iterations 170
time step continuity errors : sum local = 2.96157e-12, global = -2.34995e-14, cumulative = -1.04745e-08
ExecutionTime = 5.96 s  ClockTime = 7 s

Time = 0.064

Courant Number mean: 0.00971429 max: 0.35475
smoothSolver:  Solving for Ux, Initial residual = 0.00103405, Final residual = 3.2919e-06, No Iterations 2
smoothSolver:  Solving for Uy, Initial residual = 0.00147242, Final residual = 4.88084e-06, No Iterations 2
DICPCG:  Solving for p, Initial residual = 0.00314348, Final residual = 0.000152612, No Iterations 40
time step continuity errors : sum local = 4.82622e-10, global = 2.565e-12, cumulative = -1.0472e-08
DICPCG:  Solving for p, Initial residual = 0.00129374, Final residual = 9.09485e-07, No Iterations 170
time step continuity errors : sum local = 2.87892e-12, global = -2.4444e-14, cumulative = -1.0472e-08
ExecutionTime = 6.04 s  ClockTime = 7 s

Time = 0.065

Courant Number mean: 0.00971757 max: 0.354901
smoothSolver:  Solving for Ux, Initial residual = 0.00101994, Final residual = 3.23291e-06, No Iterations 2
smoothSolver:  Solving for Uy, Initial residual = 0.00145533, Final residual = 4.80316e-06, No Iterations 2
DICPCG:  Solving for p, Initial residual = 0.00307252, Final residual = 0.000150419, No Iterations 40
time step continuity errors : sum local = 4.7644e-10, global = 2.57143e-12, cumulative = -1.04694e-08
DICPCG:  Solving for p, Initial residual = 0.00127019, Final residual = 9.02711e-07, No Iterations 170
time step continuity errors : sum local = 2.86193e-12, global = -2.53579e-14, cumulative = -1.04695e-08
ExecutionTime = 6.12 s  ClockTime = 7 s

Time = 0.066

Courant Number mean: 0.00972082 max: 0.35505
smoothSolver:  Solving for Ux, Initial residual = 0.00100626, Final residual = 3.17579e-06, No Iterations 2
smoothSolver:  Solving for Uy, Initial residual = 0.00143867, Final residual = 4.72748e-06, No Iterations 2
DICPCG:  Solving for p, Initial residual = 0.00300063, Final residual = 0.000147715, No Iterations 40
time step continuity errors : sum local = 4.68602e-10, global = 2.60005e-12, cumulative = -1.04669e-08
DICPCG:  Solving for p, Initial residual = 0.00124844, Final residual = 8.94468e-07, No Iterations 170
time step continuity errors : sum local = 2.84016e-12, global = -2.32594e-14, cumulative = -1.04669e-08
ExecutionTime = 6.2 s  ClockTime = 7 s

Time = 0.067

Courant Number mean: 0.00972405 max: 0.355194
smoothSolver:  Solving for Ux, Initial residual = 0.000993041, Final residual = 3.12045e-06, No Iterations 2
smoothSolver:  Solving for Uy, Initial residual = 0.00142248, Final residual = 4.65378e-06, No Iterations 2
DICPCG:  Solving for p, Initial residual = 0.00294539, Final residual = 0.000144884, No Iterations 40
time step continuity errors : sum local = 4.60318e-10, global = 2.58934e-12, cumulative = -1.04643e-08
DICPCG:  Solving for p, Initial residual = 0.00122797, Final residual = 9.0477e-07, No Iterations 170
time step continuity errors : sum local = 2.87715e-12, global = -2.48372e-14, cumulative = -1.04643e-08
ExecutionTime = 6.28 s  ClockTime = 7 s

Time = 0.068

Courant Number mean: 0.00972724 max: 0.355336
smoothSolver:  Solving for Ux, Initial residual = 0.000980208, Final residual = 3.0668e-06, No Iterations 2
smoothSolver:  Solving for Uy, Initial residual = 0.00140669, Final residual = 4.58201e-06, No Iterations 2
DICPCG:  Solving for p, Initial residual = 0.00289646, Final residual = 0.00014168, No Iterations 40
time step continuity errors : sum local = 4.50815e-10, global = 2.60855e-12, cumulative = -1.04617e-08
DICPCG:  Solving for p, Initial residual = 0.0012085, Final residual = 8.86934e-07, No Iterations 170
time step continuity errors : sum local = 2.8247e-12, global = -2.44413e-14, cumulative = -1.04617e-08
ExecutionTime = 6.36 s  ClockTime = 7 s

Time = 0.069

Courant Number mean: 0.0097304 max: 0.355474
smoothSolver:  Solving for Ux, Initial residual = 0.000967748, Final residual = 3.01481e-06, No Iterations 2
smoothSolver:  Solving for Uy, Initial residual = 0.00139128, Final residual = 4.51204e-06, No Iterations 2
DICPCG:  Solving for p, Initial residual = 0.00283901, Final residual = 0.000138662, No Iterations 40
time step continuity errors : sum local = 4.4187e-10, global = 2.57204e-12, cumulative = -1.04592e-08
DICPCG:  Solving for p, Initial residual = 0.00118802, Final residual = 8.80124e-07, No Iterations 170
time step continuity errors : sum local = 2.80712e-12, global = -2.56622e-14, cumulative = -1.04592e-08
ExecutionTime = 6.44 s  ClockTime = 8 s

Time = 0.07

Courant Number mean: 0.00973355 max: 0.355609
smoothSolver:  Solving for Ux, Initial residual = 0.000955631, Final residual = 2.96444e-06, No Iterations 2
smoothSolver:  Solving for Uy, Initial residual = 0.00137619, Final residual = 4.44383e-06, No Iterations 2
DICPCG:  Solving for p, Initial residual = 0.00281583, Final residual = 0.000136572, No Iterations 40
time step continuity errors : sum local = 4.35849e-10, global = 2.57081e-12, cumulative = -1.04566e-08
DICPCG:  Solving for p, Initial residual = 0.00117116, Final residual = 8.83437e-07, No Iterations 170
time step continuity errors : sum local = 2.82179e-12, global = -2.51536e-14, cumulative = -1.04566e-08
ExecutionTime = 6.52 s  ClockTime = 8 s

Time = 0.071

Courant Number mean: 0.00973667 max: 0.355742
smoothSolver:  Solving for Ux, Initial residual = 0.000943859, Final residual = 2.91556e-06, No Iterations 2
smoothSolver:  Solving for Uy, Initial residual = 0.00136146, Final residual = 4.37732e-06, No Iterations 2
DICPCG:  Solving for p, Initial residual = 0.00276317, Final residual = 0.000136323, No Iterations 40
time step continuity errors : sum local = 4.3569e-10, global = 2.55022e-12, cumulative = -1.04541e-08
DICPCG:  Solving for p, Initial residual = 0.00115481, Final residual = 8.49142e-07, No Iterations 170
time step continuity errors : sum local = 2.71622e-12, global = -2.593e-14, cumulative = -1.04541e-08
ExecutionTime = 6.6 s  ClockTime = 8 s

Time = 0.072

Courant Number mean: 0.00973976 max: 0.355871
smoothSolver:  Solving for Ux, Initial residual = 0.000932407, Final residual = 2.86807e-06, No Iterations 2
smoothSolver:  Solving for Uy, Initial residual = 0.00134706, Final residual = 4.31244e-06, No Iterations 2
DICPCG:  Solving for p, Initial residual = 0.00274744, Final residual = 0.000133132, No Iterations 40
time step continuity errors : sum local = 4.26097e-10, global = 2.54694e-12, cumulative = -1.04516e-08
DICPCG:  Solving for p, Initial residual = 0.00113723, Final residual = 8.57249e-07, No Iterations 170
time step continuity errors : sum local = 2.74595e-12, global = -2.60154e-14, cumulative = -1.04516e-08
ExecutionTime = 6.68 s  ClockTime = 8 s

Time = 0.073

Courant Number mean: 0.00974284 max: 0.355998
smoothSolver:  Solving for Ux, Initial residual = 0.000921257, Final residual = 2.82192e-06, No Iterations 2
smoothSolver:  Solving for Uy, Initial residual = 0.00133294, Final residual = 4.24911e-06, No Iterations 2
DICPCG:  Solving for p, Initial residual = 0.00270242, Final residual = 0.000132139, No Iterations 40
time step continuity errors : sum local = 4.23505e-10, global = 2.5051e-12, cumulative = -1.04491e-08
DICPCG:  Solving for p, Initial residual = 0.00112116, Final residual = 8.39893e-07, No Iterations 170
time step continuity errors : sum local = 2.69406e-12, global = -2.6176e-14, cumulative = -1.04491e-08
ExecutionTime = 6.75 s  ClockTime = 8 s

Time = 0.074

Courant Number mean: 0.0097459 max: 0.356122
smoothSolver:  Solving for Ux, Initial residual = 0.000910408, Final residual = 2.77705e-06, No Iterations 2
smoothSolver:  Solving for Uy, Initial residual = 0.00131913, Final residual = 4.18729e-06, No Iterations 2
DICPCG:  Solving for p, Initial residual = 0.00265598, Final residual = 0.000129663, No Iterations 40
time step continuity errors : sum local = 4.16128e-10, global = 2.54235e-12, cumulative = -1.04466e-08
DICPCG:  Solving for p, Initial residual = 0.00110474, Final residual = 8.43448e-07, No Iterations 170
time step continuity errors : sum local = 2.709e-12, global = -2.74044e-14, cumulative = -1.04466e-08
ExecutionTime = 6.83 s  ClockTime = 8 s

Time = 0.075

Courant Number mean: 0.00974895 max: 0.356243
smoothSolver:  Solving for Ux, Initial residual = 0.000899842, Final residual = 2.73341e-06, No Iterations 2
smoothSolver:  Solving for Uy, Initial residual = 0.0013056, Final residual = 4.12699e-06, No Iterations 2
DICPCG:  Solving for p, Initial residual = 0.00257451, Final residual = 0.000126627, No Iterations 40
time step continuity errors : sum local = 4.06923e-10, global = 2.48044e-12, cumulative = -1.04441e-08
DICPCG:  Solving for p, Initial residual = 0.00108455, Final residual = 8.47827e-07, No Iterations 170
time step continuity errors : sum local = 2.72668e-12, global = -2.68365e-14, cumulative = -1.04441e-08
ExecutionTime = 6.91 s  ClockTime = 8 s

Time = 0.076

Courant Number mean: 0.00975198 max: 0.356362
smoothSolver:  Solving for Ux, Initial residual = 0.000889565, Final residual = 2.69097e-06, No Iterations 2
smoothSolver:  Solving for Uy, Initial residual = 0.0012924, Final residual = 4.06806e-06, No Iterations 2
DICPCG:  Solving for p, Initial residual = 0.00254051, Final residual = 0.000123853, No Iterations 40
time step continuity errors : sum local = 3.98537e-10, global = 2.51894e-12, cumulative = -1.04416e-08
DICPCG:  Solving for p, Initial residual = 0.00107095, Final residual = 9.95851e-07, No Iterations 169
time step continuity errors : sum local = 3.20698e-12, global = -1.45306e-14, cumulative = -1.04416e-08
ExecutionTime = 6.99 s  ClockTime = 8 s

Time = 0.077

Courant Number mean: 0.00975499 max: 0.356479
smoothSolver:  Solving for Ux, Initial residual = 0.000879566, Final residual = 2.64968e-06, No Iterations 2
smoothSolver:  Solving for Uy, Initial residual = 0.0012795, Final residual = 4.01048e-06, No Iterations 2
DICPCG:  Solving for p, Initial residual = 0.00250308, Final residual = 0.000122858, No Iterations 40
time step continuity errors : sum local = 3.95854e-10, global = 2.4402e-12, cumulative = -1.04392e-08
DICPCG:  Solving for p, Initial residual = 0.001056, Final residual = 8.23428e-07, No Iterations 170
time step continuity errors : sum local = 2.65516e-12, global = -2.57179e-14, cumulative = -1.04392e-08
ExecutionTime = 7.07 s  ClockTime = 8 s

Time = 0.078

Courant Number mean: 0.009758 max: 0.356593
smoothSolver:  Solving for Ux, Initial residual = 0.000869837, Final residual = 2.60948e-06, No Iterations 2
smoothSolver:  Solving for Uy, Initial residual = 0.00126688, Final residual = 3.95424e-06, No Iterations 2
DICPCG:  Solving for p, Initial residual = 0.00245771, Final residual = 0.000120179, No Iterations 40
time step continuity errors : sum local = 3.87721e-10, global = 2.47123e-12, cumulative = -1.04368e-08
DICPCG:  Solving for p, Initial residual = 0.00104111, Final residual = 9.90835e-07, No Iterations 169
time step continuity errors : sum local = 3.19906e-12, global = -1.53935e-14, cumulative = -1.04368e-08
ExecutionTime = 7.14 s  ClockTime = 8 s

Time = 0.079

Courant Number mean: 0.00976101 max: 0.356705
smoothSolver:  Solving for Ux, Initial residual = 0.000860352, Final residual = 2.57036e-06, No Iterations 2
smoothSolver:  Solving for Uy, Initial residual = 0.0012545, Final residual = 3.89924e-06, No Iterations 2
DICPCG:  Solving for p, Initial residual = 0.00243035, Final residual = 0.000117983, No Iterations 40
time step continuity errors : sum local = 3.81114e-10, global = 2.41208e-12, cumulative = -1.04344e-08
DICPCG:  Solving for p, Initial residual = 0.0010267, Final residual = 9.81218e-07, No Iterations 169
time step continuity errors : sum local = 3.17189e-12, global = -1.44552e-14, cumulative = -1.04344e-08
ExecutionTime = 7.23 s  ClockTime = 8 s

Time = 0.08

Courant Number mean: 0.00976401 max: 0.356815
smoothSolver:  Solving for Ux, Initial residual = 0.000851103, Final residual = 2.53229e-06, No Iterations 2
smoothSolver:  Solving for Uy, Initial residual = 0.00124235, Final residual = 3.84549e-06, No Iterations 2
DICPCG:  Solving for p, Initial residual = 0.00239058, Final residual = 0.000115775, No Iterations 40
time step continuity errors : sum local = 3.74451e-10, global = 2.43025e-12, cumulative = -1.04319e-08
DICPCG:  Solving for p, Initial residual = 0.00101137, Final residual = 9.98963e-07, No Iterations 168
time step continuity errors : sum local = 3.23335e-12, global = -1.27312e-15, cumulative = -1.04319e-08
ExecutionTime = 7.31 s  ClockTime = 8 s

Time = 0.081

Courant Number mean: 0.00976704 max: 0.356923
smoothSolver:  Solving for Ux, Initial residual = 0.000842086, Final residual = 2.49523e-06, No Iterations 2
smoothSolver:  Solving for Uy, Initial residual = 0.00123046, Final residual = 3.79292e-06, No Iterations 2
DICPCG:  Solving for p, Initial residual = 0.00237513, Final residual = 0.000114838, No Iterations 40
time step continuity errors : sum local = 3.71887e-10, global = 2.38343e-12, cumulative = -1.04296e-08
DICPCG:  Solving for p, Initial residual = 0.000999658, Final residual = 9.67536e-07, No Iterations 169
time step continuity errors : sum local = 3.13555e-12, global = -1.48427e-14, cumulative = -1.04296e-08
ExecutionTime = 7.39 s  ClockTime = 9 s

Time = 0.082

Courant Number mean: 0.00977006 max: 0.357029
smoothSolver:  Solving for Ux, Initial residual = 0.000833287, Final residual = 2.45917e-06, No Iterations 2
smoothSolver:  Solving for Uy, Initial residual = 0.0012188, Final residual = 3.74151e-06, No Iterations 2
DICPCG:  Solving for p, Initial residual = 0.00237862, Final residual = 0.000114653, No Iterations 40
time step continuity errors : sum local = 3.71733e-10, global = 2.31953e-12, cumulative = -1.04273e-08
DICPCG:  Solving for p, Initial residual = 0.000988398, Final residual = 9.46958e-07, No Iterations 169
time step continuity errors : sum local = 3.07235e-12, global = -1.58492e-14, cumulative = -1.04273e-08
ExecutionTime = 7.47 s  ClockTime = 9 s

Time = 0.083

Courant Number mean: 0.00977305 max: 0.357133
smoothSolver:  Solving for Ux, Initial residual = 0.000824699, Final residual = 2.42402e-06, No Iterations 2
smoothSolver:  Solving for Uy, Initial residual = 0.00120734, Final residual = 3.69122e-06, No Iterations 2
DICPCG:  Solving for p, Initial residual = 0.0023226, Final residual = 0.000112563, No Iterations 40
time step continuity errors : sum local = 3.65374e-10, global = 2.31442e-12, cumulative = -1.0425e-08
DICPCG:  Solving for p, Initial residual = 0.000973981, Final residual = 9.67076e-07, No Iterations 168
time step continuity errors : sum local = 3.14119e-12, global = -1.05205e-15, cumulative = -1.0425e-08
ExecutionTime = 7.56 s  ClockTime = 9 s

Time = 0.084

Courant Number mean: 0.00977602 max: 0.357235
smoothSolver:  Solving for Ux, Initial residual = 0.000816312, Final residual = 2.38974e-06, No Iterations 2
smoothSolver:  Solving for Uy, Initial residual = 0.0011961, Final residual = 3.64201e-06, No Iterations 2
DICPCG:  Solving for p, Initial residual = 0.00228412, Final residual = 0.00011183, No Iterations 40
time step continuity errors : sum local = 3.63409e-10, global = 2.27942e-12, cumulative = -1.04227e-08
DICPCG:  Solving for p, Initial residual = 0.000961633, Final residual = 9.90906e-07, No Iterations 168
time step continuity errors : sum local = 3.22227e-12, global = -1.44154e-15, cumulative = -1.04227e-08
ExecutionTime = 7.63 s  ClockTime = 9 s

Time = 0.085

Courant Number mean: 0.00977897 max: 0.357335
smoothSolver:  Solving for Ux, Initial residual = 0.000808123, Final residual = 2.35632e-06, No Iterations 2
smoothSolver:  Solving for Uy, Initial residual = 0.00118508, Final residual = 3.59386e-06, No Iterations 2
DICPCG:  Solving for p, Initial residual = 0.00227733, Final residual = 0.000108958, No Iterations 40
time step continuity errors : sum local = 3.54468e-10, global = 2.2554e-12, cumulative = -1.04204e-08
DICPCG:  Solving for p, Initial residual = 0.000950936, Final residual = 9.69134e-07, No Iterations 168
time step continuity errors : sum local = 3.15486e-12, global = -2.51803e-15, cumulative = -1.04204e-08
ExecutionTime = 7.71 s  ClockTime = 9 s

Time = 0.086

Courant Number mean: 0.00978189 max: 0.357434
smoothSolver:  Solving for Ux, Initial residual = 0.000800127, Final residual = 2.32371e-06, No Iterations 2
smoothSolver:  Solving for Uy, Initial residual = 0.00117426, Final residual = 3.54671e-06, No Iterations 2
DICPCG:  Solving for p, Initial residual = 0.00222758, Final residual = 0.000106635, No Iterations 40
time step continuity errors : sum local = 3.47285e-10, global = 2.25111e-12, cumulative = -1.04182e-08
DICPCG:  Solving for p, Initial residual = 0.000936193, Final residual = 9.77574e-07, No Iterations 168
time step continuity errors : sum local = 3.18578e-12, global = -3.27649e-15, cumulative = -1.04182e-08
ExecutionTime = 7.79 s  ClockTime = 9 s

Time = 0.087

Courant Number mean: 0.00978478 max: 0.35753
smoothSolver:  Solving for Ux, Initial residual = 0.000792312, Final residual = 2.29189e-06, No Iterations 2
smoothSolver:  Solving for Uy, Initial residual = 0.00116366, Final residual = 3.5005e-06, No Iterations 2
DICPCG:  Solving for p, Initial residual = 0.00218795, Final residual = 0.000106954, No Iterations 40
time step continuity errors : sum local = 3.48696e-10, global = 2.22639e-12, cumulative = -1.0416e-08
DICPCG:  Solving for p, Initial residual = 0.000925717, Final residual = 9.73558e-07, No Iterations 168
time step continuity errors : sum local = 3.17603e-12, global = 7.87997e-16, cumulative = -1.0416e-08
ExecutionTime = 7.87 s  ClockTime = 9 s

Time = 0.088

Courant Number mean: 0.00978766 max: 0.357625
smoothSolver:  Solving for Ux, Initial residual = 0.000784678, Final residual = 2.26082e-06, No Iterations 2
smoothSolver:  Solving for Uy, Initial residual = 0.00115327, Final residual = 3.45527e-06, No Iterations 2
DICPCG:  Solving for p, Initial residual = 0.00215729, Final residual = 0.00010565, No Iterations 40
time step continuity errors : sum local = 3.44804e-10, global = 2.16053e-12, cumulative = -1.04138e-08
DICPCG:  Solving for p, Initial residual = 0.000913696, Final residual = 9.80711e-07, No Iterations 168
time step continuity errors : sum local = 3.20264e-12, global = 2.41072e-15, cumulative = -1.04138e-08
ExecutionTime = 7.94 s  ClockTime = 9 s

Time = 0.089

Courant Number mean: 0.00979052 max: 0.357719
smoothSolver:  Solving for Ux, Initial residual = 0.000777222, Final residual = 2.23048e-06, No Iterations 2
smoothSolver:  Solving for Uy, Initial residual = 0.00114305, Final residual = 3.41093e-06, No Iterations 2
DICPCG:  Solving for p, Initial residual = 0.00212804, Final residual = 0.000102577, No Iterations 40
time step continuity errors : sum local = 3.35123e-10, global = 2.16547e-12, cumulative = -1.04116e-08
DICPCG:  Solving for p, Initial residual = 0.00090077, Final residual = 9.79073e-07, No Iterations 167
time step continuity errors : sum local = 3.20065e-12, global = 1.34211e-14, cumulative = -1.04116e-08
ExecutionTime = 8.03 s  ClockTime = 9 s

Time = 0.09

Courant Number mean: 0.00979336 max: 0.357811
smoothSolver:  Solving for Ux, Initial residual = 0.00076995, Final residual = 2.20086e-06, No Iterations 2
smoothSolver:  Solving for Uy, Initial residual = 0.00113303, Final residual = 3.3675e-06, No Iterations 2
DICPCG:  Solving for p, Initial residual = 0.00210606, Final residual = 0.000102626, No Iterations 40
time step continuity errors : sum local = 3.35628e-10, global = 2.10832e-12, cumulative = -1.04095e-08
DICPCG:  Solving for p, Initial residual = 0.000891181, Final residual = 9.97655e-07, No Iterations 168
time step continuity errors : sum local = 3.26469e-12, global = 3.38682e-15, cumulative = -1.04095e-08
ExecutionTime = 8.1 s  ClockTime = 9 s

Time = 0.091

Courant Number mean: 0.00979617 max: 0.357901
smoothSolver:  Solving for Ux, Initial residual = 0.000762831, Final residual = 2.17192e-06, No Iterations 2
smoothSolver:  Solving for Uy, Initial residual = 0.00112318, Final residual = 3.32499e-06, No Iterations 2
DICPCG:  Solving for p, Initial residual = 0.00209006, Final residual = 0.000101803, No Iterations 40
time step continuity errors : sum local = 3.33266e-10, global = 2.09136e-12, cumulative = -1.04074e-08
DICPCG:  Solving for p, Initial residual = 0.000881869, Final residual = 9.95248e-07, No Iterations 167
time step continuity errors : sum local = 3.25993e-12, global = 1.1435e-14, cumulative = -1.04074e-08
ExecutionTime = 8.18 s  ClockTime = 9 s

Time = 0.092

Courant Number mean: 0.00979897 max: 0.35799
smoothSolver:  Solving for Ux, Initial residual = 0.000755855, Final residual = 2.14365e-06, No Iterations 2
smoothSolver:  Solving for Uy, Initial residual = 0.00111348, Final residual = 3.28331e-06, No Iterations 2
DICPCG:  Solving for p, Initial residual = 0.0020499, Final residual = 9.97747e-05, No Iterations 40
time step continuity errors : sum local = 3.26947e-10, global = 2.05572e-12, cumulative = -1.04053e-08
DICPCG:  Solving for p, Initial residual = 0.000869696, Final residual = 9.76467e-07, No Iterations 168
time step continuity errors : sum local = 3.20162e-12, global = 3.57805e-15, cumulative = -1.04053e-08
ExecutionTime = 8.25 s  ClockTime = 10 s

Time = 0.093

Courant Number mean: 0.00980175 max: 0.358077
smoothSolver:  Solving for Ux, Initial residual = 0.000749029, Final residual = 2.11602e-06, No Iterations 2
smoothSolver:  Solving for Uy, Initial residual = 0.00110397, Final residual = 3.24246e-06, No Iterations 2
DICPCG:  Solving for p, Initial residual = 0.002043, Final residual = 9.72744e-05, No Iterations 40
time step continuity errors : sum local = 3.19077e-10, global = 2.03492e-12, cumulative = -1.04033e-08
DICPCG:  Solving for p, Initial residual = 0.000859907, Final residual = 9.62052e-07, No Iterations 167
time step continuity errors : sum local = 3.15758e-12, global = 1.29716e-14, cumulative = -1.04033e-08
ExecutionTime = 8.33 s  ClockTime = 10 s

Time = 0.094

Courant Number mean: 0.00980451 max: 0.358163
smoothSolver:  Solving for Ux, Initial residual = 0.000742344, Final residual = 2.08904e-06, No Iterations 2
smoothSolver:  Solving for Uy, Initial residual = 0.00109463, Final residual = 3.20241e-06, No Iterations 2
DICPCG:  Solving for p, Initial residual = 0.00202446, Final residual = 9.62283e-05, No Iterations 40
time step continuity errors : sum local = 3.15951e-10, global = 2.02377e-12, cumulative = -1.04013e-08
DICPCG:  Solving for p, Initial residual = 0.00085138, Final residual = 9.49962e-07, No Iterations 167
time step continuity errors : sum local = 3.12074e-12, global = 1.18909e-14, cumulative = -1.04013e-08
ExecutionTime = 8.41 s  ClockTime = 10 s

Time = 0.095

Courant Number mean: 0.00980726 max: 0.358249
smoothSolver:  Solving for Ux, Initial residual = 0.000735785, Final residual = 2.06268e-06, No Iterations 2
smoothSolver:  Solving for Uy, Initial residual = 0.00108542, Final residual = 3.16314e-06, No Iterations 2
DICPCG:  Solving for p, Initial residual = 0.0019874, Final residual = 9.7229e-05, No Iterations 40
time step continuity errors : sum local = 3.19524e-10, global = 1.97106e-12, cumulative = -1.03993e-08
DICPCG:  Solving for p, Initial residual = 0.000841425, Final residual = 9.32835e-07, No Iterations 167
time step continuity errors : sum local = 3.0672e-12, global = 1.09942e-14, cumulative = -1.03993e-08
ExecutionTime = 8.48 s  ClockTime = 10 s

Time = 0.096

Courant Number mean: 0.00980999 max: 0.358333
smoothSolver:  Solving for Ux, Initial residual = 0.00072936, Final residual = 2.03689e-06, No Iterations 2
smoothSolver:  Solving for Uy, Initial residual = 0.00107637, Final residual = 3.12466e-06, No Iterations 2
DICPCG:  Solving for p, Initial residual = 0.0019551, Final residual = 9.46709e-05, No Iterations 40
time step continuity errors : sum local = 3.11409e-10, global = 1.9387e-12, cumulative = -1.03973e-08
DICPCG:  Solving for p, Initial residual = 0.000830356, Final residual = 9.74781e-07, No Iterations 167
time step continuity errors : sum local = 3.20826e-12, global = 1.27113e-14, cumulative = -1.03973e-08
ExecutionTime = 8.56 s  ClockTime = 10 s

Time = 0.097

Courant Number mean: 0.00981271 max: 0.358416
smoothSolver:  Solving for Ux, Initial residual = 0.000723072, Final residual = 2.01165e-06, No Iterations 2
smoothSolver:  Solving for Uy, Initial residual = 0.00106751, Final residual = 3.08693e-06, No Iterations 2
DICPCG:  Solving for p, Initial residual = 0.00193291, Final residual = 9.30342e-05, No Iterations 40
time step continuity errors : sum local = 3.06318e-10, global = 1.92596e-12, cumulative = -1.03954e-08
DICPCG:  Solving for p, Initial residual = 0.00082017, Final residual = 9.86229e-07, No Iterations 167
time step continuity errors : sum local = 3.24894e-12, global = 1.31192e-14, cumulative = -1.03954e-08
ExecutionTime = 8.63 s  ClockTime = 10 s

Time = 0.098

Courant Number mean: 0.00981541 max: 0.358498
smoothSolver:  Solving for Ux, Initial residual = 0.000716912, Final residual = 1.98696e-06, No Iterations 2
smoothSolver:  Solving for Uy, Initial residual = 0.00105879, Final residual = 3.04989e-06, No Iterations 2
DICPCG:  Solving for p, Initial residual = 0.00193065, Final residual = 9.33437e-05, No Iterations 40
time step continuity errors : sum local = 3.07614e-10, global = 1.88728e-12, cumulative = -1.03935e-08
DICPCG:  Solving for p, Initial residual = 0.000813581, Final residual = 9.85414e-07, No Iterations 167
time step continuity errors : sum local = 3.24911e-12, global = 1.31234e-14, cumulative = -1.03935e-08
ExecutionTime = 8.72 s  ClockTime = 10 s

Time = 0.099

Courant Number mean: 0.0098181 max: 0.358578
smoothSolver:  Solving for Ux, Initial residual = 0.000710872, Final residual = 1.96279e-06, No Iterations 2
smoothSolver:  Solving for Uy, Initial residual = 0.00105023, Final residual = 3.01359e-06, No Iterations 2
DICPCG:  Solving for p, Initial residual = 0.00190306, Final residual = 9.17313e-05, No Iterations 40
time step continuity errors : sum local = 3.02578e-10, global = 1.86556e-12, cumulative = -1.03916e-08
DICPCG:  Solving for p, Initial residual = 0.000804228, Final residual = 9.77694e-07, No Iterations 167
time step continuity errors : sum local = 3.22674e-12, global = 1.28868e-14, cumulative = -1.03916e-08
ExecutionTime = 8.79 s  ClockTime = 10 s

Time = 0.1

Courant Number mean: 0.00982077 max: 0.358657
smoothSolver:  Solving for Ux, Initial residual = 0.000704962, Final residual = 1.93913e-06, No Iterations 2
smoothSolver:  Solving for Uy, Initial residual = 0.00104183, Final residual = 2.97795e-06, No Iterations 2
DICPCG:  Solving for p, Initial residual = 0.00189796, Final residual = 9.15188e-05, No Iterations 40
time step continuity errors : sum local = 3.0216e-10, global = 1.80759e-12, cumulative = -1.03898e-08
DICPCG:  Solving for p, Initial residual = 0.000797583, Final residual = 9.20885e-07, No Iterations 167
time step continuity errors : sum local = 3.04203e-12, global = 1.17115e-14, cumulative = -1.03898e-08
ExecutionTime = 8.87 s  ClockTime = 10 s

Time = 0.101

Courant Number mean: 0.00982343 max: 0.358735
smoothSolver:  Solving for Ux, Initial residual = 0.000699165, Final residual = 1.91597e-06, No Iterations 2
smoothSolver:  Solving for Uy, Initial residual = 0.00103355, Final residual = 2.94297e-06, No Iterations 2
DICPCG:  Solving for p, Initial residual = 0.00188781, Final residual = 9.0722e-05, No Iterations 40
time step continuity errors : sum local = 2.99794e-10, global = 1.77697e-12, cumulative = -1.0388e-08
DICPCG:  Solving for p, Initial residual = 0.000789036, Final residual = 9.06854e-07, No Iterations 167
time step continuity errors : sum local = 2.99823e-12, global = 1.10577e-14, cumulative = -1.0388e-08
ExecutionTime = 8.95 s  ClockTime = 10 s

Time = 0.102

Courant Number mean: 0.00982609 max: 0.358812
smoothSolver:  Solving for Ux, Initial residual = 0.000693484, Final residual = 1.89328e-06, No Iterations 2
smoothSolver:  Solving for Uy, Initial residual = 0.00102537, Final residual = 2.90862e-06, No Iterations 2
DICPCG:  Solving for p, Initial residual = 0.00185958, Final residual = 8.97151e-05, No Iterations 40
time step continuity errors : sum local = 2.96729e-10, global = 1.76545e-12, cumulative = -1.03862e-08
DICPCG:  Solving for p, Initial residual = 0.000780302, Final residual = 9.44615e-07, No Iterations 167
time step continuity errors : sum local = 3.12592e-12, global = 1.33006e-14, cumulative = -1.03862e-08
ExecutionTime = 9.02 s  ClockTime = 10 s

Time = 0.103

Courant Number mean: 0.00982873 max: 0.358888
smoothSolver:  Solving for Ux, Initial residual = 0.00068792, Final residual = 1.87105e-06, No Iterations 2
smoothSolver:  Solving for Uy, Initial residual = 0.00101734, Final residual = 2.87491e-06, No Iterations 2
DICPCG:  Solving for p, Initial residual = 0.00186542, Final residual = 8.65561e-05, No Iterations 40
time step continuity errors : sum local = 2.86538e-10, global = 1.74996e-12, cumulative = -1.03845e-08
DICPCG:  Solving for p, Initial residual = 0.000773355, Final residual = 9.26913e-07, No Iterations 167
time step continuity errors : sum local = 3.07007e-12, global = 1.31205e-14, cumulative = -1.03845e-08
ExecutionTime = 9.1 s  ClockTime = 10 s

Time = 0.104

Courant Number mean: 0.00983136 max: 0.358963
smoothSolver:  Solving for Ux, Initial residual = 0.000682457, Final residual = 1.84928e-06, No Iterations 2
smoothSolver:  Solving for Uy, Initial residual = 0.00100943, Final residual = 2.84179e-06, No Iterations 2
DICPCG:  Solving for p, Initial residual = 0.00183199, Final residual = 8.7789e-05, No Iterations 40
time step continuity errors : sum local = 2.90865e-10, global = 1.72106e-12, cumulative = -1.03827e-08
DICPCG:  Solving for p, Initial residual = 0.000764925, Final residual = 8.83125e-07, No Iterations 167
time step continuity errors : sum local = 2.92736e-12, global = 1.2087e-14, cumulative = -1.03827e-08
ExecutionTime = 9.18 s  ClockTime = 11 s

Time = 0.105

Courant Number mean: 0.00983399 max: 0.359036
smoothSolver:  Solving for Ux, Initial residual = 0.000677092, Final residual = 1.82795e-06, No Iterations 2
smoothSolver:  Solving for Uy, Initial residual = 0.00100162, Final residual = 2.80923e-06, No Iterations 2
DICPCG:  Solving for p, Initial residual = 0.00181005, Final residual = 8.55958e-05, No Iterations 40
time step continuity errors : sum local = 2.83825e-10, global = 1.6834e-12, cumulative = -1.0381e-08
DICPCG:  Solving for p, Initial residual = 0.000755716, Final residual = 9.66016e-07, No Iterations 166
time step continuity errors : sum local = 3.20469e-12, global = 2.31946e-14, cumulative = -1.0381e-08
ExecutionTime = 9.25 s  ClockTime = 11 s

Time = 0.106

Courant Number mean: 0.0098366 max: 0.359109
smoothSolver:  Solving for Ux, Initial residual = 0.000671824, Final residual = 1.80706e-06, No Iterations 2
smoothSolver:  Solving for Uy, Initial residual = 0.000993916, Final residual = 2.77724e-06, No Iterations 2
DICPCG:  Solving for p, Initial residual = 0.00178155, Final residual = 8.53753e-05, No Iterations 40
time step continuity errors : sum local = 2.83323e-10, global = 1.6501e-12, cumulative = -1.03794e-08
DICPCG:  Solving for p, Initial residual = 0.0007485, Final residual = 9.68301e-07, No Iterations 166
time step continuity errors : sum local = 3.2149e-12, global = 2.20099e-14, cumulative = -1.03793e-08
ExecutionTime = 9.33 s  ClockTime = 11 s

Time = 0.107

Courant Number mean: 0.0098392 max: 0.35918
smoothSolver:  Solving for Ux, Initial residual = 0.000666655, Final residual = 1.7866e-06, No Iterations 2
smoothSolver:  Solving for Uy, Initial residual = 0.000986348, Final residual = 2.74584e-06, No Iterations 2
DICPCG:  Solving for p, Initial residual = 0.00174031, Final residual = 8.41701e-05, No Iterations 40
time step continuity errors : sum local = 2.79547e-10, global = 1.65689e-12, cumulative = -1.03777e-08
DICPCG:  Solving for p, Initial residual = 0.000738549, Final residual = 9.87789e-07, No Iterations 163
time step continuity errors : sum local = 3.28217e-12, global = 4.71259e-14, cumulative = -1.03776e-08
ExecutionTime = 9.4 s  ClockTime = 11 s

Time = 0.108

Courant Number mean: 0.0098418 max: 0.359251
smoothSolver:  Solving for Ux, Initial residual = 0.00066158, Final residual = 1.76657e-06, No Iterations 2
smoothSolver:  Solving for Uy, Initial residual = 0.000978907, Final residual = 2.71501e-06, No Iterations 2
DICPCG:  Solving for p, Initial residual = 0.00171645, Final residual = 8.31536e-05, No Iterations 40
time step continuity errors : sum local = 2.76396e-10, global = 1.61105e-12, cumulative = -1.0376e-08
DICPCG:  Solving for p, Initial residual = 0.000730754, Final residual = 9.74648e-07, No Iterations 163
time step continuity errors : sum local = 3.24122e-12, global = 4.77955e-14, cumulative = -1.0376e-08
ExecutionTime = 9.48 s  ClockTime = 11 s

Time = 0.109

Courant Number mean: 0.00984439 max: 0.35932
[...]
DICPCG:  Solving for p, Initial residual = 9.84478e-05, Final residual = 4.69407e-06, No Iterations 59
time step continuity errors : sum local = 2.40526e-11, global = -9.53341e-13, cumulative = 6.06796e-09
DICPCG:  Solving for p, Initial residual = 3.90816e-05, Final residual = 9.89772e-07, No Iterations 75
time step continuity errors : sum local = 5.07176e-12, global = 3.43164e-13, cumulative = 6.06831e-09
ExecutionTime = 315.58 s  ClockTime = 350 s

Time = 4.392

Courant Number mean: 0.0151467 max: 0.379092
smoothSolver:  Solving for Ux, Initial residual = 0.000118152, Final residual = 4.00477e-07, No Iterations 1
smoothSolver:  Solving for Uy, Initial residual = 0.000136945, Final residual = 5.28864e-07, No Iterations 1
DICPCG:  Solving for p, Initial residual = 0.000110621, Final residual = 5.40889e-06, No Iterations 57
time step continuity errors : sum local = 2.77158e-11, global = 2.41273e-13, cumulative = 6.06855e-09
DICPCG:  Solving for p, Initial residual = 3.93196e-05, Final residual = 9.85125e-07, No Iterations 143
time step continuity errors : sum local = 5.0479e-12, global = 4.08354e-14, cumulative = 6.06859e-09
ExecutionTime = 315.66 s  ClockTime = 350 s

Time = 4.393

Courant Number mean: 0.0151474 max: 0.379093
smoothSolver:  Solving for Ux, Initial residual = 0.000118156, Final residual = 4.00394e-07, No Iterations 1
smoothSolver:  Solving for Uy, Initial residual = 0.000136938, Final residual = 5.28769e-07, No Iterations 1
DICPCG:  Solving for p, Initial residual = 0.000155706, Final residual = 7.20989e-06, No Iterations 53
time step continuity errors : sum local = 3.69481e-11, global = -9.05805e-13, cumulative = 6.06768e-09
DICPCG:  Solving for p, Initial residual = 4.04068e-05, Final residual = 9.6546e-07, No Iterations 75
time step continuity errors : sum local = 4.94804e-12, global = 3.45035e-13, cumulative = 6.06803e-09
ExecutionTime = 315.71 s  ClockTime = 350 s

Time = 4.394

Courant Number mean: 0.0151481 max: 0.379095
smoothSolver:  Solving for Ux, Initial residual = 0.000118153, Final residual = 4.00328e-07, No Iterations 1
smoothSolver:  Solving for Uy, Initial residual = 0.000136931, Final residual = 5.28628e-07, No Iterations 1
DICPCG:  Solving for p, Initial residual = 0.000166738, Final residual = 8.06591e-06, No Iterations 52
time step continuity errors : sum local = 4.13344e-11, global = 5.54882e-13, cumulative = 6.06858e-09
DICPCG:  Solving for p, Initial residual = 4.22379e-05, Final residual = 9.84868e-07, No Iterations 138
time step continuity errors : sum local = 5.0466e-12, global = 2.95404e-14, cumulative = 6.06861e-09
ExecutionTime = 315.79 s  ClockTime = 351 s

Time = 4.395

Courant Number mean: 0.0151488 max: 0.379097
smoothSolver:  Solving for Ux, Initial residual = 0.000118186, Final residual = 4.00327e-07, No Iterations 1
smoothSolver:  Solving for Uy, Initial residual = 0.000136925, Final residual = 5.28627e-07, No Iterations 1
DICPCG:  Solving for p, Initial residual = 7.62042e-05, Final residual = 3.68049e-06, No Iterations 61
time step continuity errors : sum local = 1.88598e-11, global = -9.33176e-13, cumulative = 6.06768e-09
DICPCG:  Solving for p, Initial residual = 3.74584e-05, Final residual = 8.98664e-07, No Iterations 76
time step continuity errors : sum local = 4.605e-12, global = 4.28754e-13, cumulative = 6.06811e-09
ExecutionTime = 315.85 s  ClockTime = 351 s

Time = 4.396

Courant Number mean: 0.0151495 max: 0.379098
smoothSolver:  Solving for Ux, Initial residual = 0.0001182, Final residual = 4.00332e-07, No Iterations 1
smoothSolver:  Solving for Uy, Initial residual = 0.000136917, Final residual = 5.28506e-07, No Iterations 1
DICPCG:  Solving for p, Initial residual = 8.15285e-05, Final residual = 3.6044e-06, No Iterations 61
time step continuity errors : sum local = 1.84699e-11, global = 3.69712e-13, cumulative = 6.06848e-09
DICPCG:  Solving for p, Initial residual = 3.76288e-05, Final residual = 9.68021e-07, No Iterations 143
time step continuity errors : sum local = 4.96042e-12, global = 3.98147e-14, cumulative = 6.06852e-09
ExecutionTime = 315.92 s  ClockTime = 351 s

Time = 4.397

Courant Number mean: 0.0151502 max: 0.3791
smoothSolver:  Solving for Ux, Initial residual = 0.000118216, Final residual = 4.00288e-07, No Iterations 1
smoothSolver:  Solving for Uy, Initial residual = 0.00013691, Final residual = 5.28438e-07, No Iterations 1
DICPCG:  Solving for p, Initial residual = 8.85163e-05, Final residual = 4.29111e-06, No Iterations 59
time step continuity errors : sum local = 2.19894e-11, global = -9.75975e-13, cumulative = 6.06754e-09
DICPCG:  Solving for p, Initial residual = 3.81426e-05, Final residual = 8.83324e-07, No Iterations 76
time step continuity errors : sum local = 4.52654e-12, global = 3.79292e-13, cumulative = 6.06792e-09
ExecutionTime = 315.98 s  ClockTime = 351 s

Time = 4.398

Courant Number mean: 0.0151509 max: 0.379101
smoothSolver:  Solving for Ux, Initial residual = 0.000118235, Final residual = 4.00301e-07, No Iterations 1
smoothSolver:  Solving for Uy, Initial residual = 0.000136902, Final residual = 5.28364e-07, No Iterations 1
DICPCG:  Solving for p, Initial residual = 9.91528e-05, Final residual = 4.51057e-06, No Iterations 58
time step continuity errors : sum local = 2.31141e-11, global = 2.52948e-13, cumulative = 6.06817e-09
DICPCG:  Solving for p, Initial residual = 3.8527e-05, Final residual = 9.8584e-07, No Iterations 143
time step continuity errors : sum local = 5.05192e-12, global = 4.10985e-14, cumulative = 6.06821e-09
ExecutionTime = 316.06 s  ClockTime = 351 s

Time = 4.399

Courant Number mean: 0.0151516 max: 0.379103
smoothSolver:  Solving for Ux, Initial residual = 0.000118234, Final residual = 4.00208e-07, No Iterations 1
smoothSolver:  Solving for Uy, Initial residual = 0.000136895, Final residual = 5.28246e-07, No Iterations 1
DICPCG:  Solving for p, Initial residual = 7.59678e-05, Final residual = 3.55172e-06, No Iterations 62
time step continuity errors : sum local = 1.82012e-11, global = -8.51956e-13, cumulative = 6.06736e-09
DICPCG:  Solving for p, Initial residual = 3.74411e-05, Final residual = 8.87951e-07, No Iterations 76
time step continuity errors : sum local = 4.55045e-12, global = 4.24713e-13, cumulative = 6.06779e-09
ExecutionTime = 316.11 s  ClockTime = 351 s

Time = 4.4

Courant Number mean: 0.0151523 max: 0.379105
smoothSolver:  Solving for Ux, Initial residual = 0.000118245, Final residual = 4.00194e-07, No Iterations 1
smoothSolver:  Solving for Uy, Initial residual = 0.000136887, Final residual = 5.28135e-07, No Iterations 1
DICPCG:  Solving for p, Initial residual = 7.63952e-05, Final residual = 3.7873e-06, No Iterations 61
time step continuity errors : sum local = 1.94087e-11, global = 3.79297e-13, cumulative = 6.06817e-09
DICPCG:  Solving for p, Initial residual = 3.76344e-05, Final residual = 9.99532e-07, No Iterations 142
time step continuity errors : sum local = 5.12233e-12, global = 2.99646e-14, cumulative = 6.0682e-09
ExecutionTime = 316.18 s  ClockTime = 351 s

Time = 4.401

Courant Number mean: 0.015153 max: 0.379106
smoothSolver:  Solving for Ux, Initial residual = 0.000118255, Final residual = 4.00123e-07, No Iterations 1
smoothSolver:  Solving for Uy, Initial residual = 0.000136882, Final residual = 5.2804e-07, No Iterations 1
DICPCG:  Solving for p, Initial residual = 7.7968e-05, Final residual = 3.76202e-06, No Iterations 61
time step continuity errors : sum local = 1.92799e-11, global = -9.51858e-13, cumulative = 6.06724e-09
DICPCG:  Solving for p, Initial residual = 3.77118e-05, Final residual = 9.89927e-07, No Iterations 75
time step continuity errors : sum local = 5.07331e-12, global = 3.61348e-13, cumulative = 6.0676e-09
ExecutionTime = 316.24 s  ClockTime = 351 s

Time = 4.402

Courant Number mean: 0.0151537 max: 0.379108
smoothSolver:  Solving for Ux, Initial residual = 0.000118267, Final residual = 4.00105e-07, No Iterations 1
smoothSolver:  Solving for Uy, Initial residual = 0.000136874, Final residual = 5.27933e-07, No Iterations 1
DICPCG:  Solving for p, Initial residual = 7.94248e-05, Final residual = 3.80283e-06, No Iterations 61
time step continuity errors : sum local = 1.94894e-11, global = 2.85807e-13, cumulative = 6.06789e-09
DICPCG:  Solving for p, Initial residual = 3.79308e-05, Final residual = 9.41488e-07, No Iterations 143
time step continuity errors : sum local = 4.82518e-12, global = 4.1079e-14, cumulative = 6.06793e-09
ExecutionTime = 316.31 s  ClockTime = 351 s

Time = 4.403

Courant Number mean: 0.0151544 max: 0.379109
smoothSolver:  Solving for Ux, Initial residual = 0.000118279, Final residual = 4.00047e-07, No Iterations 1
smoothSolver:  Solving for Uy, Initial residual = 0.000136866, Final residual = 5.27845e-07, No Iterations 1
DICPCG:  Solving for p, Initial residual = 8.24927e-05, Final residual = 3.81592e-06, No Iterations 61
time step continuity errors : sum local = 1.95574e-11, global = -9.05445e-13, cumulative = 6.06703e-09
DICPCG:  Solving for p, Initial residual = 3.81123e-05, Final residual = 9.00324e-07, No Iterations 76
time step continuity errors : sum local = 4.6144e-12, global = 4.37196e-13, cumulative = 6.06746e-09
ExecutionTime = 316.36 s  ClockTime = 351 s

Time = 4.404

Courant Number mean: 0.0151551 max: 0.379111
smoothSolver:  Solving for Ux, Initial residual = 0.00011829, Final residual = 4.0002e-07, No Iterations 1
smoothSolver:  Solving for Uy, Initial residual = 0.00013686, Final residual = 5.27736e-07, No Iterations 1
DICPCG:  Solving for p, Initial residual = 8.5301e-05, Final residual = 3.76144e-06, No Iterations 61
time step continuity errors : sum local = 1.92786e-11, global = 4.1656e-13, cumulative = 6.06788e-09
DICPCG:  Solving for p, Initial residual = 3.80342e-05, Final residual = 9.43488e-07, No Iterations 143
time step continuity errors : sum local = 4.83578e-12, global = 3.92636e-14, cumulative = 6.06792e-09
ExecutionTime = 316.44 s  ClockTime = 351 s

Time = 4.405

Courant Number mean: 0.0151558 max: 0.379113
smoothSolver:  Solving for Ux, Initial residual = 0.0001183, Final residual = 3.9994e-07, No Iterations 1
smoothSolver:  Solving for Uy, Initial residual = 0.000136853, Final residual = 5.27639e-07, No Iterations 1
DICPCG:  Solving for p, Initial residual = 9.07662e-05, Final residual = 4.3583e-06, No Iterations 60
time step continuity errors : sum local = 2.23392e-11, global = -1.01106e-12, cumulative = 6.06691e-09
DICPCG:  Solving for p, Initial residual = 3.80957e-05, Final residual = 9.81951e-07, No Iterations 75
time step continuity errors : sum local = 5.03329e-12, global = 3.33858e-13, cumulative = 6.06724e-09
ExecutionTime = 316.49 s  ClockTime = 351 s

Time = 4.406

Courant Number mean: 0.0151565 max: 0.379114
smoothSolver:  Solving for Ux, Initial residual = 0.000118313, Final residual = 3.99929e-07, No Iterations 1
smoothSolver:  Solving for Uy, Initial residual = 0.000136845, Final residual = 5.27528e-07, No Iterations 1
DICPCG:  Solving for p, Initial residual = 0.000113911, Final residual = 5.5562e-06, No Iterations 56
time step continuity errors : sum local = 2.84812e-11, global = 2.18413e-13, cumulative = 6.06746e-09
DICPCG:  Solving for p, Initial residual = 4.00663e-05, Final residual = 9.96398e-07, No Iterations 142
time step continuity errors : sum local = 5.10782e-12, global = 3.25754e-14, cumulative = 6.06749e-09
ExecutionTime = 316.57 s  ClockTime = 351 s

Time = 4.407

Courant Number mean: 0.0151572 max: 0.379116
smoothSolver:  Solving for Ux, Initial residual = 0.000118325, Final residual = 3.9986e-07, No Iterations 1
smoothSolver:  Solving for Uy, Initial residual = 0.000136838, Final residual = 5.27425e-07, No Iterations 1
DICPCG:  Solving for p, Initial residual = 0.000120259, Final residual = 5.98462e-06, No Iterations 55
time step continuity errors : sum local = 3.06793e-11, global = -9.20598e-13, cumulative = 6.06657e-09
DICPCG:  Solving for p, Initial residual = 4.16597e-05, Final residual = 9.69703e-07, No Iterations 75
time step continuity errors : sum local = 4.97102e-12, global = 3.87967e-13, cumulative = 6.06696e-09
ExecutionTime = 316.63 s  ClockTime = 351 s

Time = 4.408

Courant Number mean: 0.0151579 max: 0.379117
smoothSolver:  Solving for Ux, Initial residual = 0.000118335, Final residual = 3.99847e-07, No Iterations 1
smoothSolver:  Solving for Uy, Initial residual = 0.000136831, Final residual = 5.27359e-07, No Iterations 1
DICPCG:  Solving for p, Initial residual = 0.000109183, Final residual = 5.2111e-06, No Iterations 57
time step continuity errors : sum local = 2.67141e-11, global = 3.02575e-13, cumulative = 6.06726e-09
DICPCG:  Solving for p, Initial residual = 4.02611e-05, Final residual = 9.66713e-07, No Iterations 143
time step continuity errors : sum local = 4.95584e-12, global = 4.02532e-14, cumulative = 6.0673e-09
ExecutionTime = 316.71 s  ClockTime = 352 s

Time = 4.409

Courant Number mean: 0.0151586 max: 0.379119
smoothSolver:  Solving for Ux, Initial residual = 0.000118347, Final residual = 3.99788e-07, No Iterations 1
smoothSolver:  Solving for Uy, Initial residual = 0.000136823, Final residual = 5.27271e-07, No Iterations 1
DICPCG:  Solving for p, Initial residual = 0.000190279, Final residual = 8.62088e-06, No Iterations 52
time step continuity errors : sum local = 4.41917e-11, global = -7.85788e-13, cumulative = 6.06652e-09
DICPCG:  Solving for p, Initial residual = 4.6308e-05, Final residual = 9.22439e-07, No Iterations 75
time step continuity errors : sum local = 4.72811e-12, global = 2.99459e-13, cumulative = 6.06682e-09
ExecutionTime = 316.76 s  ClockTime = 352 s

Time = 4.41

Courant Number mean: 0.0151593 max: 0.379121
smoothSolver:  Solving for Ux, Initial residual = 0.000118351, Final residual = 3.99766e-07, No Iterations 1
smoothSolver:  Solving for Uy, Initial residual = 0.00013682, Final residual = 5.27241e-07, No Iterations 1
DICPCG:  Solving for p, Initial residual = 9.38566e-05, Final residual = 4.68464e-06, No Iterations 59
time step continuity errors : sum local = 2.40114e-11, global = 1.74628e-13, cumulative = 6.06699e-09
DICPCG:  Solving for p, Initial residual = 3.87018e-05, Final residual = 9.99405e-07, No Iterations 143
time step continuity errors : sum local = 5.12244e-12, global = 4.01962e-14, cumulative = 6.06703e-09
ExecutionTime = 316.84 s  ClockTime = 352 s

Time = 4.411

Courant Number mean: 0.01516 max: 0.379122
smoothSolver:  Solving for Ux, Initial residual = 0.000118363, Final residual = 3.99712e-07, No Iterations 1
smoothSolver:  Solving for Uy, Initial residual = 0.000136812, Final residual = 5.27142e-07, No Iterations 1
DICPCG:  Solving for p, Initial residual = 8.29291e-05, Final residual = 3.99185e-06, No Iterations 60
time step continuity errors : sum local = 2.04608e-11, global = -9.15141e-13, cumulative = 6.06612e-09
DICPCG:  Solving for p, Initial residual = 3.76072e-05, Final residual = 8.93706e-07, No Iterations 76
time step continuity errors : sum local = 4.58085e-12, global = 4.42692e-13, cumulative = 6.06656e-09
ExecutionTime = 316.89 s  ClockTime = 352 s

Time = 4.412

Courant Number mean: 0.0151607 max: 0.379124
smoothSolver:  Solving for Ux, Initial residual = 0.000118378, Final residual = 3.99703e-07, No Iterations 1
smoothSolver:  Solving for Uy, Initial residual = 0.000136802, Final residual = 5.27044e-07, No Iterations 1
DICPCG:  Solving for p, Initial residual = 0.00011922, Final residual = 5.84778e-06, No Iterations 55
time step continuity errors : sum local = 2.99751e-11, global = 4.14247e-13, cumulative = 6.06697e-09
DICPCG:  Solving for p, Initial residual = 3.9038e-05, Final residual = 9.99001e-07, No Iterations 143
time step continuity errors : sum local = 5.12104e-12, global = 3.93855e-14, cumulative = 6.06701e-09
ExecutionTime = 316.97 s  ClockTime = 352 s

Time = 4.413

Courant Number mean: 0.0151614 max: 0.379125
smoothSolver:  Solving for Ux, Initial residual = 0.000118404, Final residual = 3.99671e-07, No Iterations 1
smoothSolver:  Solving for Uy, Initial residual = 0.000136786, Final residual = 5.27024e-07, No Iterations 1
DICPCG:  Solving for p, Initial residual = 0.000140073, Final residual = 6.85322e-06, No Iterations 54
time step continuity errors : sum local = 3.51295e-11, global = -1.04441e-12, cumulative = 6.06597e-09
DICPCG:  Solving for p, Initial residual = 3.93037e-05, Final residual = 9.78192e-07, No Iterations 75
time step continuity errors : sum local = 5.01394e-12, global = 2.37881e-13, cumulative = 6.06621e-09
ExecutionTime = 317.02 s  ClockTime = 352 s

Time = 4.414

Courant Number mean: 0.0151621 max: 0.379127
smoothSolver:  Solving for Ux, Initial residual = 0.000118392, Final residual = 3.99588e-07, No Iterations 1
smoothSolver:  Solving for Uy, Initial residual = 0.000136792, Final residual = 5.26828e-07, No Iterations 1
DICPCG:  Solving for p, Initial residual = 7.6598e-05, Final residual = 3.76856e-06, No Iterations 61
time step continuity errors : sum local = 1.93166e-11, global = 8.10722e-14, cumulative = 6.06629e-09
DICPCG:  Solving for p, Initial residual = 3.7481e-05, Final residual = 9.67684e-07, No Iterations 143
time step continuity errors : sum local = 4.9601e-12, global = 4.3869e-14, cumulative = 6.06633e-09
ExecutionTime = 317.09 s  ClockTime = 352 s

Time = 4.415

Courant Number mean: 0.0151627 max: 0.379129
smoothSolver:  Solving for Ux, Initial residual = 0.000118403, Final residual = 3.99535e-07, No Iterations 1
smoothSolver:  Solving for Uy, Initial residual = 0.000136782, Final residual = 5.26718e-07, No Iterations 1
DICPCG:  Solving for p, Initial residual = 7.60562e-05, Final residual = 3.78125e-06, No Iterations 61
time step continuity errors : sum local = 1.93821e-11, global = -8.22461e-13, cumulative = 6.06551e-09
DICPCG:  Solving for p, Initial residual = 3.74667e-05, Final residual = 9.17957e-07, No Iterations 76
time step continuity errors : sum local = 4.70531e-12, global = 5.20425e-13, cumulative = 6.06603e-09
ExecutionTime = 317.15 s  ClockTime = 352 s

Time = 4.416

Courant Number mean: 0.0151634 max: 0.37913
smoothSolver:  Solving for Ux, Initial residual = 0.000118413, Final residual = 3.99511e-07, No Iterations 1
smoothSolver:  Solving for Uy, Initial residual = 0.000136777, Final residual = 5.26613e-07, No Iterations 1
DICPCG:  Solving for p, Initial residual = 8.51563e-05, Final residual = 4.18818e-06, No Iterations 60
time step continuity errors : sum local = 2.14681e-11, global = 5.34028e-13, cumulative = 6.06656e-09
DICPCG:  Solving for p, Initial residual = 3.75993e-05, Final residual = 9.82948e-07, No Iterations 143
time step continuity errors : sum local = 5.03853e-12, global = 3.8223e-14, cumulative = 6.0666e-09
ExecutionTime = 317.23 s  ClockTime = 352 s

Time = 4.417

Courant Number mean: 0.0151641 max: 0.379132
smoothSolver:  Solving for Ux, Initial residual = 0.00011842, Final residual = 3.9943e-07, No Iterations 1
smoothSolver:  Solving for Uy, Initial residual = 0.00013677, Final residual = 5.26512e-07, No Iterations 1
DICPCG:  Solving for p, Initial residual = 8.5405e-05, Final residual = 4.1246e-06, No Iterations 60
time step continuity errors : sum local = 2.11429e-11, global = -1.14087e-12, cumulative = 6.06546e-09
DICPCG:  Solving for p, Initial residual = 3.77991e-05, Final residual = 9.7162e-07, No Iterations 75
time step continuity errors : sum local = 4.98057e-12, global = 2.52926e-13, cumulative = 6.06571e-09
ExecutionTime = 317.28 s  ClockTime = 352 s

Time = 4.418

Courant Number mean: 0.0151648 max: 0.379133
smoothSolver:  Solving for Ux, Initial residual = 0.000118435, Final residual = 3.99428e-07, No Iterations 1
smoothSolver:  Solving for Uy, Initial residual = 0.000136762, Final residual = 5.26415e-07, No Iterations 1
DICPCG:  Solving for p, Initial residual = 7.25468e-05, Final residual = 3.5194e-06, No Iterations 62
time step continuity errors : sum local = 1.80406e-11, global = 1.9457e-13, cumulative = 6.06591e-09
