/work/05113/danieler/stampede2/CFD-Final-Project/circular-cylinder-3-10
Sun May 10 23:36:13 CDT 2020
/*---------------------------------------------------------------------------*\
  =========                 |
  \\      /  F ield         | OpenFOAM: The Open Source CFD Toolbox
   \\    /   O peration     | Website:  https://openfoam.org
    \\  /    A nd           | Version:  6.0
     \\/     M anipulation  |
\*---------------------------------------------------------------------------*/
Build  : 6.0
Exec   : blockMesh
Date   : May 10 2020
Time   : 23:36:15
Host   : "c441-132.stampede2.tacc.utexas.edu"
PID    : 97546
I/O    : uncollated
Case   : /work/05113/danieler/stampede2/CFD-Final-Project/circular-cylinder-3-10
nProcs : 1
sigFpe : Enabling floating point exception trapping (FOAM_SIGFPE).
fileModificationChecking : Monitoring run-time modified files using timeStampMaster (fileModificationSkew 10)
allowSystemOperations : Allowing user-supplied system call operations

// * * * * * * * * * * * * * * * * * * * * * * * * * * * * * * * * * * * * * //
Create time

Deleting polyMesh directory
    "/work/05113/danieler/stampede2/CFD-Final-Project/circular-cylinder-3-10/constant/polyMesh"
Creating block mesh from
    "/work/05113/danieler/stampede2/CFD-Final-Project/circular-cylinder-3-10/system/blockMeshDict"
Creating block edges
No non-planar block faces defined
Creating topology blocks
Creating topology patches

Creating block mesh topology

Check topology

	Basic statistics
		Number of internal faces : 28
		Number of boundary faces : 64
		Number of defined boundary faces : 64
		Number of undefined boundary faces : 0
	Checking patch -> block consistency

Creating block offsets
Creating merge list .

Creating polyMesh from blockMesh
Creating points with scale 1
    Block 0 cell size :
        i : 0.0166667 .. 0.0166667
        j : 0.0130894 .. 0.0130894
        k : 1 .. 1

    Block 1 cell size :
        i : 0.0130894 .. 0.0130894
        j : 0.0166667 .. 0.0166667
        k : 1 .. 1

    Block 2 cell size :
        i : 0.0130894 .. 0.0130894
        j : 0.0166641 .. 0.0166641
        k : 1 .. 1

    Block 3 cell size :
        i : 0.0166667 .. 0.0166667
        j : 0.0261788 .. 0.0261788
        k : 1 .. 1

    Block 4 cell size :
        i : 0.0166641 .. 0.0166641
        j : 0.0261788 .. 0.0261788
        k : 1 .. 1

    Block 5 cell size :
        i : 0.0261788 .. 0.0261788
        j : 0.0166641 .. 0.0166641
        k : 1 .. 1

    Block 6 cell size :
        i : 0.0261788 .. 0.0261788
        j : 0.0166667 .. 0.0166667
        k : 1 .. 1

    Block 7 cell size :
        i : 0.0166641 .. 0.0166641
        j : 0.0130894 .. 0.0130894
        k : 1 .. 1

    Block 8 cell size :
        i : 0.115067 .. 0.575334
        j : 0.0261788 .. 0.0261788
        k : 1 .. 1

    Block 9 cell size :
        i : 0.117997 .. 0.589987
        j : 0.0371924 .. 0.185962
        k : 1 .. 1

    Block 10 cell size :
        i : 0.0261788 .. 0.0261788
        j : 0.0332919 .. 0.166459
        k : 1 .. 1

    Block 11 cell size :
        i : 0.0261788 .. 0.0261788
        j : 0.0371924 .. 0.185962
        k : 1 .. 1

    Block 12 cell size :
        i : 0.0930967 .. 0.0930967
        j : 0.0371924 .. 0.185962
        k : 1 .. 1

    Block 13 cell size :
        i : 0.0833333 .. 0.0833333
        j : 0.02357 .. 0.02357
        k : 1 .. 1

    Block 14 cell size :
        i : 0.0930967 .. 0.0930967
        j : 0.02357 .. 0.02357
        k : 1 .. 1

    Block 15 cell size :
        i : 0.0930967 .. 0.0930967
        j : 0.185962 .. 0.0371924
        k : 1 .. 1

    Block 16 cell size :
        i : 0.02357 .. 0.02357
        j : 0.185962 .. 0.0371924
        k : 1 .. 1

    Block 17 cell size :
        i : 0.02357 .. 0.02357
        j : 0.166459 .. 0.0332919
        k : 1 .. 1

    Block 18 cell size :
        i : 0.117997 .. 0.589987
        j : 0.185962 .. 0.0371924
        k : 1 .. 1

    Block 19 cell size :
        i : 0.117997 .. 0.589987
        j : 0.0261788 .. 0.0261788
        k : 1 .. 1

Creating cells
Creating patches

Writing polyMesh
----------------
Mesh Information
----------------
  boundingBox: (-3.5 -3.5 0) (12.5 3.5 1)
  nPoints: 39140
  nCells: 19200
  nFaces: 77170
  nInternalFaces: 38030
----------------
Patches
----------------
  patch 0 (start: 38030 size: 120) name: inlet
  patch 1 (start: 38150 size: 120) name: outlet
  patch 2 (start: 38270 size: 130) name: top
  patch 3 (start: 38400 size: 130) name: bottom
  patch 4 (start: 38530 size: 240) name: cylinder
  patch 5 (start: 38770 size: 38400) name: frontandback

End

/*---------------------------------------------------------------------------*\
  =========                 |
  \\      /  F ield         | OpenFOAM: The Open Source CFD Toolbox
   \\    /   O peration     | Website:  https://openfoam.org
    \\  /    A nd           | Version:  6.0
     \\/     M anipulation  |
\*---------------------------------------------------------------------------*/
Build  : 6.0
Exec   : checkMesh
Date   : May 10 2020
Time   : 23:36:17
Host   : "c441-132.stampede2.tacc.utexas.edu"
PID    : 97554
I/O    : uncollated
Case   : /work/05113/danieler/stampede2/CFD-Final-Project/circular-cylinder-3-10
nProcs : 1
sigFpe : Enabling floating point exception trapping (FOAM_SIGFPE).
fileModificationChecking : Monitoring run-time modified files using timeStampMaster (fileModificationSkew 10)
allowSystemOperations : Allowing user-supplied system call operations

// * * * * * * * * * * * * * * * * * * * * * * * * * * * * * * * * * * * * * //
Create time

Create polyMesh for time = 0

Time = 0

Mesh stats
    points:           39140
    internal points:  0
    faces:            77170
    internal faces:   38030
    cells:            19200
    faces per cell:   6
    boundary patches: 6
    point zones:      0
    face zones:       0
    cell zones:       0

Overall number of cells of each type:
    hexahedra:     19200
    prisms:        0
    wedges:        0
    pyramids:      0
    tet wedges:    0
    tetrahedra:    0
    polyhedra:     0

Checking topology...
    Boundary definition OK.
    Cell to face addressing OK.
    Point usage OK.
    Upper triangular ordering OK.
    Face vertices OK.
    Number of regions: 1 (OK).

Checking patch topology for multiply connected surfaces...
    Patch               Faces    Points   Surface topology                  
    inlet               120      242      ok (non-closed singly connected)  
    outlet              120      242      ok (non-closed singly connected)  
    top                 130      262      ok (non-closed singly connected)  
    bottom              130      262      ok (non-closed singly connected)  
    cylinder            240      480      ok (non-closed singly connected)  
    frontandback        38400    39140    ok (non-closed singly connected)  

Checking geometry...
    Overall domain bounding box (-3.5 -3.5 0) (12.5 3.5 1)
    Mesh has 2 geometric (non-empty/wedge) directions (1 1 0)
    Mesh has 2 solution (non-empty) directions (1 1 0)
    All edges aligned with or perpendicular to non-empty directions.
    Boundary openness (4.90578e-18 1.72111e-16 -2.31089e-15) OK.
    Max cell openness = 2.19862e-16 OK.
    Max aspect ratio = 25.0313 OK.
    Minimum face area = 0.000221741. Maximum face area = 0.589987.  Face area magnitudes OK.
    Min volume = 0.000221741. Max volume = 0.109715.  Total volume = 111.215.  Cell volumes OK.
    Mesh non-orthogonality Max: 43.8961 average: 11.3518
    Non-orthogonality check OK.
    Face pyramids OK.
    Max skewness = 0.516814 OK.
    Coupled point location match (average 0) OK.

Mesh OK.

End

/*---------------------------------------------------------------------------*\
  =========                 |
  \\      /  F ield         | OpenFOAM: The Open Source CFD Toolbox
   \\    /   O peration     | Website:  https://openfoam.org
    \\  /    A nd           | Version:  6.0
     \\/     M anipulation  |
\*---------------------------------------------------------------------------*/
Build  : 6.0
Exec   : decomposePar
Date   : May 10 2020
Time   : 23:36:21
Host   : "c441-132.stampede2.tacc.utexas.edu"
PID    : 97613
I/O    : uncollated
Case   : /work/05113/danieler/stampede2/CFD-Final-Project/circular-cylinder-3-10
nProcs : 1
sigFpe : Enabling floating point exception trapping (FOAM_SIGFPE).
fileModificationChecking : Monitoring run-time modified files using timeStampMaster (fileModificationSkew 10)
allowSystemOperations : Allowing user-supplied system call operations

// * * * * * * * * * * * * * * * * * * * * * * * * * * * * * * * * * * * * * //
Create time



Decomposing mesh region0

Create mesh

Calculating distribution of cells
Selecting decompositionMethod hierarchical

Finished decomposition in 0.03 s

Calculating original mesh data

Distributing cells to processors

Distributing faces to processors

Distributing points to processors

Constructing processor meshes

Processor 0
    Number of cells = 4800
    Number of faces shared with processor 1 = 168
    Number of processor patches = 1
    Number of processor faces = 168
    Number of boundary faces = 9786

Processor 1
    Number of cells = 4800
    Number of faces shared with processor 0 = 168
    Number of faces shared with processor 2 = 129
    Number of processor patches = 2
    Number of processor faces = 297
    Number of boundary faces = 9799

Processor 2
    Number of cells = 4800
    Number of faces shared with processor 1 = 129
    Number of faces shared with processor 3 = 136
    Number of processor patches = 2
    Number of processor faces = 265
    Number of boundary faces = 9759

Processor 3
    Number of cells = 4800
    Number of faces shared with processor 2 = 136
    Number of processor patches = 1
    Number of processor faces = 136
    Number of boundary faces = 9796

Number of processor faces = 433
Max number of cells = 4800 (0% above average 4800)
Max number of processor patches = 2 (33.3333% above average 1.5)
Max number of faces between processors = 297 (37.1824% above average 216.5)

Time = 0
--> FOAM Warning : 
    From function bool Foam::IOobject::readHeader(Foam::Istream &)
    in file db/IOobject/IOobjectReadHeader.C at line 88
    Reading "/work/05113/danieler/stampede2/CFD-Final-Project/circular-cylinder-3-10/0/log" at line 8
    First token could not be read or is not the keyword 'FoamFile'

Check header is of the form:

/*--------------------------------*- C++ -*----------------------------------*\
  =========                 |
  \\      /  F ield         | OpenFOAM: The Open Source CFD Toolbox
   \\    /   O peration     | Website:  https://openfoam.org
    \\  /    A nd           | Version:  6.0
     \\/     M anipulation  |
\*---------------------------------------------------------------------------*/
FoamFile
{
    version     2.0;
    format      ascii;
    class       IOobject;
    location    "0";
    object      log;
}
// * * * * * * * * * * * * * * * * * * * * * * * * * * * * * * * * * * * * * //


Processor 0: field transfer
Processor 1: field transfer
Processor 2: field transfer
Processor 3: field transfer

End

TACC:  Starting up job 5678360 
TACC:  Starting parallel tasks... 
/*---------------------------------------------------------------------------*\
  =========                 |
  \\      /  F ield         | OpenFOAM: The Open Source CFD Toolbox
   \\    /   O peration     | Website:  https://openfoam.org
    \\  /    A nd           | Version:  6.0
     \\/     M anipulation  |
\*---------------------------------------------------------------------------*/
Build  : 6.0
Exec   : /home1/apps/intel18/impi18_0/OpenFOAM/OpenFOAM-6.0/platforms/linux64IccDPInt32Opt/bin/icoFoam -parallel
Date   : May 10 2020
Time   : 23:36:26
Host   : "c441-132.stampede2.tacc.utexas.edu"
PID    : 97745
I/O    : uncollated
Case   : /work/05113/danieler/stampede2/CFD-Final-Project/circular-cylinder-3-10
nProcs : 4
Slaves : 
3
(
"c441-132.stampede2.tacc.utexas.edu.97746"
"c441-132.stampede2.tacc.utexas.edu.97747"
"c441-132.stampede2.tacc.utexas.edu.97748"
)

Pstream initialized with:
    floatTransfer      : 0
    nProcsSimpleSum    : 0
    commsType          : nonBlocking
    polling iterations : 0
sigFpe : Enabling floating point exception trapping (FOAM_SIGFPE).
fileModificationChecking : Monitoring run-time modified files using timeStampMaster (fileModificationSkew 10)
allowSystemOperations : Allowing user-supplied system call operations

// * * * * * * * * * * * * * * * * * * * * * * * * * * * * * * * * * * * * * //
Create time

Create mesh for time = 0

Reading transportProperties

Reading field p

Reading field U

Reading/calculating face flux field phi


Starting time loop

Time = 0.0035

Courant Number mean: 0.0312162 max: 0.330007
smoothSolver:  Solving for Ux, Initial residual = 1, Final residual = 4.15581e-06, No Iterations 11
smoothSolver:  Solving for Uy, Initial residual = 1, Final residual = 5.97613e-06, No Iterations 10
DICPCG:  Solving for p, Initial residual = 1, Final residual = 0.0485163, No Iterations 141
time step continuity errors : sum local = 3.12047e-06, global = 1.48694e-08, cumulative = 1.48694e-08
DICPCG:  Solving for p, Initial residual = 0.244861, Final residual = 9.91094e-07, No Iterations 250
time step continuity errors : sum local = 3.80224e-10, global = 2.75233e-13, cumulative = 1.48696e-08
ExecutionTime = 0.38 s  ClockTime = 1 s

Time = 0.007

Courant Number mean: 0.0326553 max: 0.894793
smoothSolver:  Solving for Ux, Initial residual = 0.27628, Final residual = 4.29323e-06, No Iterations 9
smoothSolver:  Solving for Uy, Initial residual = 0.31544, Final residual = 4.48906e-06, No Iterations 9
DICPCG:  Solving for p, Initial residual = 0.281773, Final residual = 0.0139972, No Iterations 141
time step continuity errors : sum local = 4.49454e-06, global = 8.08449e-09, cumulative = 2.29541e-08
DICPCG:  Solving for p, Initial residual = 0.432787, Final residual = 9.04914e-07, No Iterations 256
time step continuity errors : sum local = 1.92609e-10, global = 6.3334e-13, cumulative = 2.29548e-08
ExecutionTime = 0.53 s  ClockTime = 1 s

Time = 0.0105

Courant Number mean: 0.0328988 max: 1.03567
smoothSolver:  Solving for Ux, Initial residual = 0.0463886, Final residual = 6.11668e-06, No Iterations 7
smoothSolver:  Solving for Uy, Initial residual = 0.0549134, Final residual = 5.15352e-06, No Iterations 7
DICPCG:  Solving for p, Initial residual = 0.624633, Final residual = 0.0308538, No Iterations 121
time step continuity errors : sum local = 1.72538e-06, global = 1.24668e-08, cumulative = 3.54215e-08
DICPCG:  Solving for p, Initial residual = 0.396456, Final residual = 9.40924e-07, No Iterations 245
time step continuity errors : sum local = 4.65455e-11, global = 4.00498e-13, cumulative = 3.54219e-08
ExecutionTime = 0.67 s  ClockTime = 1 s

Time = 0.014

Courant Number mean: 0.0330525 max: 1.10773
smoothSolver:  Solving for Ux, Initial residual = 0.0244864, Final residual = 4.98459e-06, No Iterations 7
smoothSolver:  Solving for Uy, Initial residual = 0.0258077, Final residual = 4.09796e-06, No Iterations 7
DICPCG:  Solving for p, Initial residual = 0.323002, Final residual = 0.0151022, No Iterations 59
time step continuity errors : sum local = 3.87867e-07, global = 8.00539e-08, cumulative = 1.15476e-07
DICPCG:  Solving for p, Initial residual = 0.194307, Final residual = 9.82339e-07, No Iterations 231
time step continuity errors : sum local = 2.28965e-11, global = 1.1857e-13, cumulative = 1.15476e-07
ExecutionTime = 0.78 s  ClockTime = 1 s

Time = 0.0175

Courant Number mean: 0.0331675 max: 1.14598
smoothSolver:  Solving for Ux, Initial residual = 0.0150088, Final residual = 4.37518e-06, No Iterations 7
smoothSolver:  Solving for Uy, Initial residual = 0.0157125, Final residual = 3.60041e-06, No Iterations 7
DICPCG:  Solving for p, Initial residual = 0.172287, Final residual = 0.00853161, No Iterations 36
time step continuity errors : sum local = 1.46113e-07, global = -4.41829e-09, cumulative = 1.11058e-07
DICPCG:  Solving for p, Initial residual = 0.0960424, Final residual = 9.98494e-07, No Iterations 225
time step continuity errors : sum local = 1.69234e-11, global = -7.24714e-14, cumulative = 1.11058e-07
ExecutionTime = 0.89 s  ClockTime = 1 s

Time = 0.021

Courant Number mean: 0.0332606 max: 1.16872
smoothSolver:  Solving for Ux, Initial residual = 0.0127318, Final residual = 3.77793e-06, No Iterations 7
smoothSolver:  Solving for Uy, Initial residual = 0.0131731, Final residual = 9.40212e-06, No Iterations 6
DICPCG:  Solving for p, Initial residual = 0.12611, Final residual = 0.00599878, No Iterations 49
time step continuity errors : sum local = 1.01628e-07, global = 1.08304e-08, cumulative = 1.21888e-07
DICPCG:  Solving for p, Initial residual = 0.0688572, Final residual = 9.58692e-07, No Iterations 228
time step continuity errors : sum local = 1.61341e-11, global = -9.41593e-14, cumulative = 1.21888e-07
ExecutionTime = 1 s  ClockTime = 1 s

Time = 0.0245

Courant Number mean: 0.0333471 max: 1.1839
smoothSolver:  Solving for Ux, Initial residual = 0.0103124, Final residual = 8.94094e-06, No Iterations 6
smoothSolver:  Solving for Uy, Initial residual = 0.0109734, Final residual = 8.48352e-06, No Iterations 6
DICPCG:  Solving for p, Initial residual = 0.094337, Final residual = 0.00455653, No Iterations 56
time step continuity errors : sum local = 7.33222e-08, global = 4.54801e-09, cumulative = 1.26436e-07
DICPCG:  Solving for p, Initial residual = 0.0540919, Final residual = 9.62796e-07, No Iterations 225
time step continuity errors : sum local = 1.55143e-11, global = 1.56619e-14, cumulative = 1.26436e-07
ExecutionTime = 1.12 s  ClockTime = 1 s

Time = 0.028

Courant Number mean: 0.033421 max: 1.19488
smoothSolver:  Solving for Ux, Initial residual = 0.00874506, Final residual = 7.75207e-06, No Iterations 6
smoothSolver:  Solving for Uy, Initial residual = 0.00972284, Final residual = 7.7139e-06, No Iterations 6
DICPCG:  Solving for p, Initial residual = 0.0721704, Final residual = 0.00357399, No Iterations 56
time step continuity errors : sum local = 5.67926e-08, global = 3.60128e-09, cumulative = 1.30037e-07
DICPCG:  Solving for p, Initial residual = 0.04241, Final residual = 9.83066e-07, No Iterations 221
time step continuity errors : sum local = 1.56808e-11, global = 1.18723e-14, cumulative = 1.30037e-07
ExecutionTime = 1.23 s  ClockTime = 1 s

Time = 0.0315

Courant Number mean: 0.0334863 max: 1.20331
smoothSolver:  Solving for Ux, Initial residual = 0.00760774, Final residual = 6.81579e-06, No Iterations 6
smoothSolver:  Solving for Uy, Initial residual = 0.0088287, Final residual = 7.07406e-06, No Iterations 6
DICPCG:  Solving for p, Initial residual = 0.0569884, Final residual = 0.00241756, No Iterations 57
time step continuity errors : sum local = 3.82175e-08, global = 2.35598e-09, cumulative = 1.32393e-07
DICPCG:  Solving for p, Initial residual = 0.0336063, Final residual = 9.87113e-07, No Iterations 218
time step continuity errors : sum local = 1.56774e-11, global = 9.11241e-15, cumulative = 1.32393e-07
ExecutionTime = 1.34 s  ClockTime = 1 s

Time = 0.035

Courant Number mean: 0.0335467 max: 1.21006
smoothSolver:  Solving for Ux, Initial residual = 0.0067561, Final residual = 6.06057e-06, No Iterations 6
smoothSolver:  Solving for Uy, Initial residual = 0.008123, Final residual = 6.53022e-06, No Iterations 6
DICPCG:  Solving for p, Initial residual = 0.0471826, Final residual = 0.00205686, No Iterations 57
time step continuity errors : sum local = 3.25687e-08, global = 1.8089e-09, cumulative = 1.34202e-07
DICPCG:  Solving for p, Initial residual = 0.0282785, Final residual = 9.98637e-07, No Iterations 216
time step continuity errors : sum local = 1.58909e-11, global = -1.36607e-13, cumulative = 1.34202e-07
ExecutionTime = 1.46 s  ClockTime = 2 s

Time = 0.0385

Courant Number mean: 0.0336057 max: 1.21562
smoothSolver:  Solving for Ux, Initial residual = 0.00609361, Final residual = 5.4405e-06, No Iterations 6
smoothSolver:  Solving for Uy, Initial residual = 0.00754321, Final residual = 6.06184e-06, No Iterations 6
DICPCG:  Solving for p, Initial residual = 0.0409021, Final residual = 0.00181179, No Iterations 57
time step continuity errors : sum local = 2.88206e-08, global = 1.4704e-09, cumulative = 1.35672e-07
DICPCG:  Solving for p, Initial residual = 0.0251922, Final residual = 9.55477e-07, No Iterations 215
time step continuity errors : sum local = 1.52754e-11, global = -2.12267e-13, cumulative = 1.35672e-07
ExecutionTime = 1.56 s  ClockTime = 2 s

Time = 0.042

Courant Number mean: 0.0336616 max: 1.22033
smoothSolver:  Solving for Ux, Initial residual = 0.00556382, Final residual = 4.9229e-06, No Iterations 6
smoothSolver:  Solving for Uy, Initial residual = 0.00705247, Final residual = 5.65406e-06, No Iterations 6
DICPCG:  Solving for p, Initial residual = 0.0364467, Final residual = 0.00162408, No Iterations 57
time step continuity errors : sum local = 2.59849e-08, global = 1.27128e-09, cumulative = 1.36943e-07
DICPCG:  Solving for p, Initial residual = 0.023105, Final residual = 9.91901e-07, No Iterations 214
time step continuity errors : sum local = 1.59513e-11, global = -2.42096e-13, cumulative = 1.36943e-07
ExecutionTime = 1.68 s  ClockTime = 2 s

Time = 0.0455

Courant Number mean: 0.0337135 max: 1.22437
smoothSolver:  Solving for Ux, Initial residual = 0.00512882, Final residual = 4.48502e-06, No Iterations 6
smoothSolver:  Solving for Uy, Initial residual = 0.0066316, Final residual = 5.29546e-06, No Iterations 6
DICPCG:  Solving for p, Initial residual = 0.0329682, Final residual = 0.0014611, No Iterations 57
time step continuity errors : sum local = 2.353e-08, global = 1.13696e-09, cumulative = 1.3808e-07
DICPCG:  Solving for p, Initial residual = 0.0213719, Final residual = 9.37593e-07, No Iterations 214
time step continuity errors : sum local = 1.51689e-11, global = -2.49799e-13, cumulative = 1.3808e-07
ExecutionTime = 1.78 s  ClockTime = 2 s

Time = 0.049

Courant Number mean: 0.0337624 max: 1.22789
smoothSolver:  Solving for Ux, Initial residual = 0.00476365, Final residual = 4.11041e-06, No Iterations 6
smoothSolver:  Solving for Uy, Initial residual = 0.00626443, Final residual = 4.97693e-06, No Iterations 6
DICPCG:  Solving for p, Initial residual = 0.0301017, Final residual = 0.00133823, No Iterations 57
time step continuity errors : sum local = 2.16875e-08, global = 1.04005e-09, cumulative = 1.3912e-07
DICPCG:  Solving for p, Initial residual = 0.0198604, Final residual = 9.00343e-07, No Iterations 214
time step continuity errors : sum local = 1.46508e-11, global = -2.43217e-13, cumulative = 1.3912e-07
ExecutionTime = 1.89 s  ClockTime = 2 s

Time = 0.0525

Courant Number mean: 0.0338091 max: 1.231
smoothSolver:  Solving for Ux, Initial residual = 0.00445331, Final residual = 3.78809e-06, No Iterations 6
smoothSolver:  Solving for Uy, Initial residual = 0.00594121, Final residual = 4.69152e-06, No Iterations 6
DICPCG:  Solving for p, Initial residual = 0.0277015, Final residual = 0.00120931, No Iterations 57
time step continuity errors : sum local = 1.97159e-08, global = 9.63117e-10, cumulative = 1.40083e-07
DICPCG:  Solving for p, Initial residual = 0.0185135, Final residual = 9.9492e-07, No Iterations 213
time step continuity errors : sum local = 1.62805e-11, global = -2.51953e-13, cumulative = 1.40083e-07
ExecutionTime = 2 s  ClockTime = 2 s

Time = 0.056

Courant Number mean: 0.0338544 max: 1.23377
smoothSolver:  Solving for Ux, Initial residual = 0.00418496, Final residual = 3.50978e-06, No Iterations 6
smoothSolver:  Solving for Uy, Initial residual = 0.0056531, Final residual = 4.4333e-06, No Iterations 6
DICPCG:  Solving for p, Initial residual = 0.025659, Final residual = 0.00112838, No Iterations 57
time step continuity errors : sum local = 1.84987e-08, global = 8.99073e-10, cumulative = 1.40982e-07
DICPCG:  Solving for p, Initial residual = 0.0173645, Final residual = 9.47962e-07, No Iterations 213
time step continuity errors : sum local = 1.55947e-11, global = -2.35133e-13, cumulative = 1.40981e-07
ExecutionTime = 2.11 s  ClockTime = 2 s

Time = 0.0595

Courant Number mean: 0.0338995 max: 1.23626
smoothSolver:  Solving for Ux, Initial residual = 0.00395079, Final residual = 9.35705e-06, No Iterations 5
smoothSolver:  Solving for Uy, Initial residual = 0.00539457, Final residual = 4.19873e-06, No Iterations 6
DICPCG:  Solving for p, Initial residual = 0.0239552, Final residual = 0.0011957, No Iterations 47
time step continuity errors : sum local = 1.97042e-08, global = 1.41444e-10, cumulative = 1.41123e-07
DICPCG:  Solving for p, Initial residual = 0.0163875, Final residual = 9.61121e-07, No Iterations 213
time step continuity errors : sum local = 1.58892e-11, global = -1.58798e-13, cumulative = 1.41123e-07
ExecutionTime = 2.21 s  ClockTime = 2 s

Time = 0.063

Courant Number mean: 0.0339432 max: 1.23851
smoothSolver:  Solving for Ux, Initial residual = 0.00374241, Final residual = 8.75405e-06, No Iterations 5
smoothSolver:  Solving for Uy, Initial residual = 0.00516017, Final residual = 3.98394e-06, No Iterations 6
DICPCG:  Solving for p, Initial residual = 0.022489, Final residual = 0.00109567, No Iterations 44
time step continuity errors : sum local = 1.81422e-08, global = 1.13719e-11, cumulative = 1.41134e-07
DICPCG:  Solving for p, Initial residual = 0.0153973, Final residual = 8.87109e-07, No Iterations 213
time step continuity errors : sum local = 1.47307e-11, global = -1.51347e-13, cumulative = 1.41134e-07
ExecutionTime = 2.31 s  ClockTime = 2 s

Time = 0.0665

Courant Number mean: 0.033985 max: 1.24056
smoothSolver:  Solving for Ux, Initial residual = 0.00355954, Final residual = 8.21575e-06, No Iterations 5
smoothSolver:  Solving for Uy, Initial residual = 0.00494818, Final residual = 3.78727e-06, No Iterations 6
DICPCG:  Solving for p, Initial residual = 0.0212007, Final residual = 0.00100378, No Iterations 44
time step continuity errors : sum local = 1.66965e-08, global = 4.24849e-11, cumulative = 1.41176e-07
DICPCG:  Solving for p, Initial residual = 0.0146786, Final residual = 9.50671e-07, No Iterations 212
time step continuity errors : sum local = 1.58543e-11, global = -1.2627e-13, cumulative = 1.41176e-07
ExecutionTime = 2.41 s  ClockTime = 3 s

Time = 0.07

Courant Number mean: 0.0340254 max: 1.24244
smoothSolver:  Solving for Ux, Initial residual = 0.00339593, Final residual = 7.7335e-06, No Iterations 5
smoothSolver:  Solving for Uy, Initial residual = 0.00475447, Final residual = 3.60606e-06, No Iterations 6
DICPCG:  Solving for p, Initial residual = 0.020026, Final residual = 0.000957312, No Iterations 44
time step continuity errors : sum local = 1.59911e-08, global = 5.29508e-11, cumulative = 1.41229e-07
DICPCG:  Solving for p, Initial residual = 0.0139488, Final residual = 9.74937e-07, No Iterations 211
time step continuity errors : sum local = 1.63244e-11, global = -1.03316e-13, cumulative = 1.41229e-07
ExecutionTime = 2.52 s  ClockTime = 3 s

Time = 0.0735

Courant Number mean: 0.0340644 max: 1.24417
smoothSolver:  Solving for Ux, Initial residual = 0.00324893, Final residual = 7.2994e-06, No Iterations 5
smoothSolver:  Solving for Uy, Initial residual = 0.00457687, Final residual = 3.43854e-06, No Iterations 6
DICPCG:  Solving for p, Initial residual = 0.0189789, Final residual = 0.000930484, No Iterations 43
time step continuity errors : sum local = 1.5605e-08, global = 4.46211e-11, cumulative = 1.41274e-07
DICPCG:  Solving for p, Initial residual = 0.0133115, Final residual = 9.3714e-07, No Iterations 210
time step continuity errors : sum local = 1.57514e-11, global = -2.77351e-14, cumulative = 1.41274e-07
ExecutionTime = 2.62 s  ClockTime = 3 s

Time = 0.077

Courant Number mean: 0.0341025 max: 1.24577
smoothSolver:  Solving for Ux, Initial residual = 0.00311562, Final residual = 6.90753e-06, No Iterations 5
smoothSolver:  Solving for Uy, Initial residual = 0.00441289, Final residual = 9.63142e-06, No Iterations 5
DICPCG:  Solving for p, Initial residual = 0.0180255, Final residual = 0.000895323, No Iterations 43
time step continuity errors : sum local = 1.50711e-08, global = 4.86025e-11, cumulative = 1.41322e-07
DICPCG:  Solving for p, Initial residual = 0.0127109, Final residual = 9.62429e-07, No Iterations 209
time step continuity errors : sum local = 1.62353e-11, global = -2.66435e-15, cumulative = 1.41322e-07
ExecutionTime = 2.73 s  ClockTime = 3 s

Time = 0.0805

Courant Number mean: 0.0341398 max: 1.24726
smoothSolver:  Solving for Ux, Initial residual = 0.00299432, Final residual = 6.55101e-06, No Iterations 5
smoothSolver:  Solving for Uy, Initial residual = 0.00426153, Final residual = 9.20418e-06, No Iterations 5
DICPCG:  Solving for p, Initial residual = 0.0171958, Final residual = 0.000849249, No Iterations 43
time step continuity errors : sum local = 1.43465e-08, global = 5.55562e-11, cumulative = 1.41378e-07
DICPCG:  Solving for p, Initial residual = 0.012154, Final residual = 9.38983e-07, No Iterations 191
time step continuity errors : sum local = 1.58939e-11, global = 3.62149e-13, cumulative = 1.41378e-07
ExecutionTime = 2.82 s  ClockTime = 3 s

Time = 0.084

Courant Number mean: 0.0341766 max: 1.24865
smoothSolver:  Solving for Ux, Initial residual = 0.00288369, Final residual = 6.22582e-06, No Iterations 5
smoothSolver:  Solving for Uy, Initial residual = 0.00412055, Final residual = 8.80485e-06, No Iterations 5
DICPCG:  Solving for p, Initial residual = 0.0164308, Final residual = 0.000811876, No Iterations 43
time step continuity errors : sum local = 1.37612e-08, global = 6.32098e-11, cumulative = 1.41441e-07
DICPCG:  Solving for p, Initial residual = 0.0116594, Final residual = 9.23699e-07, No Iterations 189
time step continuity errors : sum local = 1.56847e-11, global = 1.05861e-13, cumulative = 1.41442e-07
ExecutionTime = 2.92 s  ClockTime = 3 s

Time = 0.0875

Courant Number mean: 0.0342135 max: 1.24994
smoothSolver:  Solving for Ux, Initial residual = 0.00278223, Final residual = 5.92806e-06, No Iterations 5
smoothSolver:  Solving for Uy, Initial residual = 0.00398896, Final residual = 8.43188e-06, No Iterations 5
DICPCG:  Solving for p, Initial residual = 0.0157337, Final residual = 0.000772956, No Iterations 43
time step continuity errors : sum local = 1.31425e-08, global = 6.69396e-11, cumulative = 1.41509e-07
DICPCG:  Solving for p, Initial residual = 0.0111935, Final residual = 9.47522e-07, No Iterations 190
time step continuity errors : sum local = 1.61374e-11, global = -2.15499e-13, cumulative = 1.41508e-07
ExecutionTime = 3.01 s  ClockTime = 3 s

Time = 0.091

Courant Number mean: 0.0342493 max: 1.25116
smoothSolver:  Solving for Ux, Initial residual = 0.00268885, Final residual = 5.65466e-06, No Iterations 5
smoothSolver:  Solving for Uy, Initial residual = 0.00386608, Final residual = 8.08206e-06, No Iterations 5
DICPCG:  Solving for p, Initial residual = 0.0150991, Final residual = 0.000744912, No Iterations 43
time step continuity errors : sum local = 1.2703e-08, global = 7.19281e-11, cumulative = 1.4158e-07
DICPCG:  Solving for p, Initial residual = 0.0107715, Final residual = 9.3411e-07, No Iterations 195
time step continuity errors : sum local = 1.59538e-11, global = -4.29554e-13, cumulative = 1.4158e-07
ExecutionTime = 3.11 s  ClockTime = 3 s

Time = 0.0945

Courant Number mean: 0.0342842 max: 1.2523
smoothSolver:  Solving for Ux, Initial residual = 0.00260275, Final residual = 5.4026e-06, No Iterations 5
smoothSolver:  Solving for Uy, Initial residual = 0.00375077, Final residual = 7.75381e-06, No Iterations 5
DICPCG:  Solving for p, Initial residual = 0.0145224, Final residual = 0.000720414, No Iterations 43
time step continuity errors : sum local = 1.23195e-08, global = 7.3368e-11, cumulative = 1.41653e-07
DICPCG:  Solving for p, Initial residual = 0.010372, Final residual = 9.522e-07, No Iterations 208
time step continuity errors : sum local = 1.63063e-11, global = -1.17658e-13, cumulative = 1.41653e-07
ExecutionTime = 3.22 s  ClockTime = 3 s

Time = 0.098

Courant Number mean: 0.0343184 max: 1.25338
smoothSolver:  Solving for Ux, Initial residual = 0.00252279, Final residual = 5.16938e-06, No Iterations 5
smoothSolver:  Solving for Uy, Initial residual = 0.00364241, Final residual = 7.44582e-06, No Iterations 5
DICPCG:  Solving for p, Initial residual = 0.0139862, Final residual = 0.00069357, No Iterations 43
time step continuity errors : sum local = 1.18924e-08, global = 7.69498e-11, cumulative = 1.4173e-07
DICPCG:  Solving for p, Initial residual = 0.0100093, Final residual = 9.81754e-07, No Iterations 208
time step continuity errors : sum local = 1.68561e-11, global = -8.30123e-14, cumulative = 1.4173e-07
ExecutionTime = 3.31 s  ClockTime = 3 s

Time = 0.1015

Courant Number mean: 0.0343518 max: 1.25441
smoothSolver:  Solving for Ux, Initial residual = 0.00244837, Final residual = 4.95309e-06, No Iterations 5
smoothSolver:  Solving for Uy, Initial residual = 0.00354061, Final residual = 7.15576e-06, No Iterations 5
DICPCG:  Solving for p, Initial residual = 0.013489, Final residual = 0.000637698, No Iterations 44
time step continuity errors : sum local = 1.09626e-08, global = 9.91433e-11, cumulative = 1.41829e-07
DICPCG:  Solving for p, Initial residual = 0.0095933, Final residual = 9.40331e-07, No Iterations 208
time step continuity errors : sum local = 1.61847e-11, global = -6.78511e-14, cumulative = 1.41829e-07
ExecutionTime = 3.43 s  ClockTime = 4 s

Time = 0.105

Courant Number mean: 0.0343847 max: 1.25539
smoothSolver:  Solving for Ux, Initial residual = 0.00237909, Final residual = 4.75205e-06, No Iterations 5
smoothSolver:  Solving for Uy, Initial residual = 0.00344445, Final residual = 6.88201e-06, No Iterations 5
DICPCG:  Solving for p, Initial residual = 0.0130065, Final residual = 0.000644328, No Iterations 43
time step continuity errors : sum local = 1.1104e-08, global = 8.59874e-11, cumulative = 1.41915e-07
DICPCG:  Solving for p, Initial residual = 0.00932865, Final residual = 9.71337e-07, No Iterations 208
time step continuity errors : sum local = 1.67597e-11, global = -2.64921e-14, cumulative = 1.41915e-07
ExecutionTime = 3.52 s  ClockTime = 4 s

Time = 0.1085

Courant Number mean: 0.034417 max: 1.25632
smoothSolver:  Solving for Ux, Initial residual = 0.00231434, Final residual = 4.5648e-06, No Iterations 5
smoothSolver:  Solving for Uy, Initial residual = 0.0033534, Final residual = 6.62354e-06, No Iterations 5
DICPCG:  Solving for p, Initial residual = 0.01259, Final residual = 0.000599218, No Iterations 44
time step continuity errors : sum local = 1.03511e-08, global = 1.00569e-10, cumulative = 1.42016e-07
DICPCG:  Solving for p, Initial residual = 0.00897901, Final residual = 9.50685e-07, No Iterations 208
time step continuity errors : sum local = 1.64406e-11, global = -1.07498e-14, cumulative = 1.42016e-07
ExecutionTime = 3.62 s  ClockTime = 4 s

Time = 0.112

Courant Number mean: 0.034449 max: 1.2572
smoothSolver:  Solving for Ux, Initial residual = 0.00225366, Final residual = 4.38989e-06, No Iterations 5
smoothSolver:  Solving for Uy, Initial residual = 0.00326715, Final residual = 6.37928e-06, No Iterations 5
DICPCG:  Solving for p, Initial residual = 0.0121694, Final residual = 0.000608239, No Iterations 43
time step continuity errors : sum local = 1.05312e-08, global = 8.67493e-11, cumulative = 1.42102e-07
DICPCG:  Solving for p, Initial residual = 0.00874582, Final residual = 9.50417e-07, No Iterations 208
time step continuity errors : sum local = 1.64733e-11, global = 2.12485e-14, cumulative = 1.42102e-07
ExecutionTime = 3.73 s  ClockTime = 4 s

Time = 0.1155

Courant Number mean: 0.0344807 max: 1.25804
smoothSolver:  Solving for Ux, Initial residual = 0.00219663, Final residual = 4.22635e-06, No Iterations 5
smoothSolver:  Solving for Uy, Initial residual = 0.00318555, Final residual = 6.14814e-06, No Iterations 5
DICPCG:  Solving for p, Initial residual = 0.0118096, Final residual = 0.000568746, No Iterations 44
time step continuity errors : sum local = 9.86909e-09, global = 1.01436e-10, cumulative = 1.42204e-07
DICPCG:  Solving for p, Initial residual = 0.00844, Final residual = 9.25279e-07, No Iterations 208
time step continuity errors : sum local = 1.6071e-11, global = 3.3773e-14, cumulative = 1.42204e-07
ExecutionTime = 3.83 s  ClockTime = 4 s

Time = 0.119

Courant Number mean: 0.0345125 max: 1.25884
smoothSolver:  Solving for Ux, Initial residual = 0.00214303, Final residual = 4.07296e-06, No Iterations 5
smoothSolver:  Solving for Uy, Initial residual = 0.00310786, Final residual = 5.92908e-06, No Iterations 5
DICPCG:  Solving for p, Initial residual = 0.0114405, Final residual = 0.000552631, No Iterations 44
time step continuity errors : sum local = 9.60978e-09, global = 1.08494e-10, cumulative = 1.42312e-07
DICPCG:  Solving for p, Initial residual = 0.00820796, Final residual = 9.18125e-07, No Iterations 208
time step continuity errors : sum local = 1.59798e-11, global = 5.01241e-14, cumulative = 1.42312e-07
ExecutionTime = 3.94 s  ClockTime = 4 s

Time = 0.1225

Courant Number mean: 0.0345439 max: 1.25961
smoothSolver:  Solving for Ux, Initial residual = 0.00209248, Final residual = 3.92895e-06, No Iterations 5
smoothSolver:  Solving for Uy, Initial residual = 0.00303393, Final residual = 5.72157e-06, No Iterations 5
DICPCG:  Solving for p, Initial residual = 0.0111107, Final residual = 0.000541519, No Iterations 44
time step continuity errors : sum local = 9.43553e-09, global = 1.06355e-10, cumulative = 1.42419e-07
DICPCG:  Solving for p, Initial residual = 0.00796775, Final residual = 9.07973e-07, No Iterations 208
time step continuity errors : sum local = 1.58339e-11, global = 6.56092e-14, cumulative = 1.42419e-07
ExecutionTime = 4.04 s  ClockTime = 4 s

Time = 0.126

Courant Number mean: 0.0345747 max: 1.26035
smoothSolver:  Solving for Ux, Initial residual = 0.00204468, Final residual = 3.79343e-06, No Iterations 5
smoothSolver:  Solving for Uy, Initial residual = 0.00296354, Final residual = 5.52469e-06, No Iterations 5
DICPCG:  Solving for p, Initial residual = 0.0107926, Final residual = 0.000531676, No Iterations 44
time step continuity errors : sum local = 9.28212e-09, global = 1.07943e-10, cumulative = 1.42527e-07
DICPCG:  Solving for p, Initial residual = 0.00775424, Final residual = 8.8614e-07, No Iterations 208
time step continuity errors : sum local = 1.54829e-11, global = 8.06293e-14, cumulative = 1.42527e-07
ExecutionTime = 4.14 s  ClockTime = 4 s

Time = 0.1295

Courant Number mean: 0.034605 max: 1.26105
smoothSolver:  Solving for Ux, Initial residual = 0.00199944, Final residual = 3.66574e-06, No Iterations 5
smoothSolver:  Solving for Uy, Initial residual = 0.00289638, Final residual = 5.33778e-06, No Iterations 5
DICPCG:  Solving for p, Initial residual = 0.0104955, Final residual = 0.000523516, No Iterations 44
time step continuity errors : sum local = 9.15728e-09, global = 1.07266e-10, cumulative = 1.42634e-07
DICPCG:  Solving for p, Initial residual = 0.00753915, Final residual = 8.84972e-07, No Iterations 208
time step continuity errors : sum local = 1.54913e-11, global = 9.25333e-14, cumulative = 1.42634e-07
ExecutionTime = 4.25 s  ClockTime = 4 s

Time = 0.133

Courant Number mean: 0.0346349 max: 1.26173
smoothSolver:  Solving for Ux, Initial residual = 0.00195659, Final residual = 3.54525e-06, No Iterations 5
smoothSolver:  Solving for Uy, Initial residual = 0.00283216, Final residual = 5.16031e-06, No Iterations 5
DICPCG:  Solving for p, Initial residual = 0.0102084, Final residual = 0.000455343, No Iterations 45
time step continuity errors : sum local = 7.97964e-09, global = 1.29398e-10, cumulative = 1.42763e-07
DICPCG:  Solving for p, Initial residual = 0.00731002, Final residual = 9.77682e-07, No Iterations 207
time step continuity errors : sum local = 1.71454e-11, global = 8.41299e-14, cumulative = 1.42764e-07
ExecutionTime = 4.35 s  ClockTime = 4 s

Time = 0.1365

Courant Number mean: 0.0346645 max: 1.26238
smoothSolver:  Solving for Ux, Initial residual = 0.00191594, Final residual = 3.43137e-06, No Iterations 5
smoothSolver:  Solving for Uy, Initial residual = 0.00277069, Final residual = 4.99168e-06, No Iterations 5
DICPCG:  Solving for p, Initial residual = 0.00993176, Final residual = 0.000448907, No Iterations 45
time step continuity errors : sum local = 7.88111e-09, global = 1.30376e-10, cumulative = 1.42894e-07
DICPCG:  Solving for p, Initial residual = 0.0071327, Final residual = 9.77031e-07, No Iterations 207
time step continuity errors : sum local = 1.71646e-11, global = 9.50494e-14, cumulative = 1.42894e-07
ExecutionTime = 4.45 s  ClockTime = 5 s

Time = 0.14

Courant Number mean: 0.0346937 max: 1.26301
smoothSolver:  Solving for Ux, Initial residual = 0.00187727, Final residual = 9.95142e-06, No Iterations 4
smoothSolver:  Solving for Uy, Initial residual = 0.00271195, Final residual = 4.83129e-06, No Iterations 5
DICPCG:  Solving for p, Initial residual = 0.00994079, Final residual = 0.000487016, No Iterations 44
time step continuity errors : sum local = 8.56474e-09, global = 1.19535e-10, cumulative = 1.43014e-07
DICPCG:  Solving for p, Initial residual = 0.00727734, Final residual = 9.26576e-07, No Iterations 184
time step continuity errors : sum local = 1.63055e-11, global = 7.88299e-14, cumulative = 1.43014e-07
ExecutionTime = 4.55 s  ClockTime = 5 s

Time = 0.1435

Courant Number mean: 0.0347225 max: 1.26361
smoothSolver:  Solving for Ux, Initial residual = 0.0018393, Final residual = 9.6577e-06, No Iterations 4
smoothSolver:  Solving for Uy, Initial residual = 0.00265356, Final residual = 4.67748e-06, No Iterations 5
DICPCG:  Solving for p, Initial residual = 0.00965268, Final residual = 0.000423183, No Iterations 45
time step continuity errors : sum local = 7.45362e-09, global = 1.17721e-10, cumulative = 1.43131e-07
DICPCG:  Solving for p, Initial residual = 0.00704646, Final residual = 9.44091e-07, No Iterations 185
time step continuity errors : sum local = 1.66381e-11, global = 2.39832e-13, cumulative = 1.43132e-07
ExecutionTime = 4.64 s  ClockTime = 5 s

Time = 0.147

Courant Number mean: 0.0347511 max: 1.26419
smoothSolver:  Solving for Ux, Initial residual = 0.00180477, Final residual = 9.37601e-06, No Iterations 4
smoothSolver:  Solving for Uy, Initial residual = 0.00260011, Final residual = 4.53221e-06, No Iterations 5
DICPCG:  Solving for p, Initial residual = 0.00941204, Final residual = 0.000468404, No Iterations 44
time step continuity errors : sum local = 8.26438e-09, global = 1.10677e-10, cumulative = 1.43242e-07
DICPCG:  Solving for p, Initial residual = 0.00692094, Final residual = 9.67222e-07, No Iterations 184
time step continuity errors : sum local = 1.70752e-11, global = 1.21523e-13, cumulative = 1.43242e-07
ExecutionTime = 4.73 s  ClockTime = 5 s

Time = 0.1505

Courant Number mean: 0.0347796 max: 1.26475
smoothSolver:  Solving for Ux, Initial residual = 0.00177119, Final residual = 9.1082e-06, No Iterations 4
smoothSolver:  Solving for Uy, Initial residual = 0.00254814, Final residual = 4.39377e-06, No Iterations 5
DICPCG:  Solving for p, Initial residual = 0.00920717, Final residual = 0.000408867, No Iterations 45
time step continuity errors : sum local = 7.2254e-09, global = 1.26065e-10, cumulative = 1.43368e-07
DICPCG:  Solving for p, Initial residual = 0.00672911, Final residual = 9.46033e-07, No Iterations 184
time step continuity errors : sum local = 1.67266e-11, global = 7.75439e-14, cumulative = 1.43369e-07
ExecutionTime = 4.83 s  ClockTime = 5 s

Time = 0.154

Courant Number mean: 0.0348079 max: 1.26529
smoothSolver:  Solving for Ux, Initial residual = 0.00173929, Final residual = 8.85322e-06, No Iterations 4
smoothSolver:  Solving for Uy, Initial residual = 0.00249835, Final residual = 4.26176e-06, No Iterations 5
DICPCG:  Solving for p, Initial residual = 0.00898631, Final residual = 0.000401465, No Iterations 45
time step continuity errors : sum local = 7.10568e-09, global = 1.28589e-10, cumulative = 1.43497e-07
DICPCG:  Solving for p, Initial residual = 0.00658923, Final residual = 9.28046e-07, No Iterations 184
time step continuity errors : sum local = 1.6434e-11, global = -1.19263e-14, cumulative = 1.43497e-07
ExecutionTime = 4.92 s  ClockTime = 5 s

Time = 0.1575

Courant Number mean: 0.0348363 max: 1.26581
smoothSolver:  Solving for Ux, Initial residual = 0.00170867, Final residual = 8.61026e-06, No Iterations 4
smoothSolver:  Solving for Uy, Initial residual = 0.0024504, Final residual = 4.13582e-06, No Iterations 5
DICPCG:  Solving for p, Initial residual = 0.00878901, Final residual = 0.00039735, No Iterations 45
time step continuity errors : sum local = 7.04357e-09, global = 1.28352e-10, cumulative = 1.43625e-07
DICPCG:  Solving for p, Initial residual = 0.00644033, Final residual = 9.95767e-07, No Iterations 183
time step continuity errors : sum local = 1.76594e-11, global = -6.53879e-14, cumulative = 1.43625e-07
ExecutionTime = 5.01 s  ClockTime = 5 s

Time = 0.161

Courant Number mean: 0.0348644 max: 1.26631
smoothSolver:  Solving for Ux, Initial residual = 0.00167934, Final residual = 8.37875e-06, No Iterations 4
smoothSolver:  Solving for Uy, Initial residual = 0.00240423, Final residual = 4.01557e-06, No Iterations 5
DICPCG:  Solving for p, Initial residual = 0.00859652, Final residual = 0.000386368, No Iterations 45
time step continuity errors : sum local = 6.8591e-09, global = 1.31798e-10, cumulative = 1.43757e-07
DICPCG:  Solving for p, Initial residual = 0.00630932, Final residual = 9.96692e-07, No Iterations 183
time step continuity errors : sum local = 1.77019e-11, global = -1.37034e-13, cumulative = 1.43757e-07
ExecutionTime = 5.11 s  ClockTime = 5 s

Time = 0.1645

Courant Number mean: 0.0348922 max: 1.26681
smoothSolver:  Solving for Ux, Initial residual = 0.0016512, Final residual = 8.1577e-06, No Iterations 4
smoothSolver:  Solving for Uy, Initial residual = 0.00235976, Final residual = 3.90073e-06, No Iterations 5
DICPCG:  Solving for p, Initial residual = 0.00841484, Final residual = 0.000384063, No Iterations 45
time step continuity errors : sum local = 6.82821e-09, global = 1.30362e-10, cumulative = 1.43887e-07
DICPCG:  Solving for p, Initial residual = 0.00617071, Final residual = 9.97693e-07, No Iterations 183
time step continuity errors : sum local = 1.77452e-11, global = -2.06763e-13, cumulative = 1.43887e-07
ExecutionTime = 5.21 s  ClockTime = 5 s

Time = 0.168

Courant Number mean: 0.0349198 max: 1.26728
smoothSolver:  Solving for Ux, Initial residual = 0.00162422, Final residual = 7.94647e-06, No Iterations 4
smoothSolver:  Solving for Uy, Initial residual = 0.00231698, Final residual = 3.79103e-06, No Iterations 5
DICPCG:  Solving for p, Initial residual = 0.00823769, Final residual = 0.000379034, No Iterations 45
time step continuity errors : sum local = 6.74847e-09, global = 1.30916e-10, cumulative = 1.44018e-07
DICPCG:  Solving for p, Initial residual = 0.00604249, Final residual = 9.47097e-07, No Iterations 184
time step continuity errors : sum local = 1.68692e-11, global = -2.84845e-13, cumulative = 1.44018e-07
ExecutionTime = 5.3 s  ClockTime = 5 s

Time = 0.1715

Courant Number mean: 0.034947 max: 1.26775
smoothSolver:  Solving for Ux, Initial residual = 0.00159826, Final residual = 7.74434e-06, No Iterations 4
smoothSolver:  Solving for Uy, Initial residual = 0.00227568, Final residual = 3.68602e-06, No Iterations 5
DICPCG:  Solving for p, Initial residual = 0.00806836, Final residual = 0.000376145, No Iterations 45
time step continuity errors : sum local = 6.70642e-09, global = 1.31297e-10, cumulative = 1.44149e-07
DICPCG:  Solving for p, Initial residual = 0.00592181, Final residual = 9.7069e-07, No Iterations 184
time step continuity errors : sum local = 1.73136e-11, global = -3.40513e-13, cumulative = 1.44149e-07
ExecutionTime = 5.39 s  ClockTime = 6 s

Time = 0.175

Courant Number mean: 0.0349741 max: 1.26819
smoothSolver:  Solving for Ux, Initial residual = 0.00157325, Final residual = 7.55076e-06, No Iterations 4
smoothSolver:  Solving for Uy, Initial residual = 0.00223579, Final residual = 3.58579e-06, No Iterations 5
DICPCG:  Solving for p, Initial residual = 0.00790631, Final residual = 0.000369366, No Iterations 45
time step continuity errors : sum local = 6.59471e-09, global = 1.31533e-10, cumulative = 1.4428e-07
DICPCG:  Solving for p, Initial residual = 0.00580152, Final residual = 9.90102e-07, No Iterations 184
time step continuity errors : sum local = 1.76839e-11, global = -3.9082e-13, cumulative = 1.4428e-07
ExecutionTime = 5.49 s  ClockTime = 6 s

Time = 0.1785

Courant Number mean: 0.0350009 max: 1.26863
smoothSolver:  Solving for Ux, Initial residual = 0.00154916, Final residual = 7.36543e-06, No Iterations 4
smoothSolver:  Solving for Uy, Initial residual = 0.00219726, Final residual = 3.48986e-06, No Iterations 5
DICPCG:  Solving for p, Initial residual = 0.00775023, Final residual = 0.000366829, No Iterations 45
time step continuity errors : sum local = 6.55827e-09, global = 1.32562e-10, cumulative = 1.44413e-07
DICPCG:  Solving for p, Initial residual = 0.00569079, Final residual = 9.70647e-07, No Iterations 185
time step continuity errors : sum local = 1.73639e-11, global = -4.37455e-13, cumulative = 1.44412e-07
ExecutionTime = 5.58 s  ClockTime = 6 s

Time = 0.182

Courant Number mean: 0.0350276 max: 1.26905
smoothSolver:  Solving for Ux, Initial residual = 0.00152596, Final residual = 7.18771e-06, No Iterations 4
smoothSolver:  Solving for Uy, Initial residual = 0.00216006, Final residual = 3.39817e-06, No Iterations 5
DICPCG:  Solving for p, Initial residual = 0.00760054, Final residual = 0.000359793, No Iterations 45
time step continuity errors : sum local = 6.44149e-09, global = 1.32994e-10, cumulative = 1.44545e-07
DICPCG:  Solving for p, Initial residual = 0.00557303, Final residual = 9.50806e-07, No Iterations 186
time step continuity errors : sum local = 1.70517e-11, global = -4.88242e-13, cumulative = 1.44545e-07
ExecutionTime = 5.68 s  ClockTime = 6 s

Time = 0.1855

Courant Number mean: 0.035054 max: 1.26947
smoothSolver:  Solving for Ux, Initial residual = 0.00150361, Final residual = 7.01716e-06, No Iterations 4
smoothSolver:  Solving for Uy, Initial residual = 0.00212408, Final residual = 3.31013e-06, No Iterations 5
DICPCG:  Solving for p, Initial residual = 0.00744724, Final residual = 0.000355063, No Iterations 45
time step continuity errors : sum local = 6.37255e-09, global = 1.34826e-10, cumulative = 1.44679e-07
DICPCG:  Solving for p, Initial residual = 0.00546891, Final residual = 9.91653e-07, No Iterations 186
time step continuity errors : sum local = 1.78279e-11, global = -5.25854e-13, cumulative = 1.44679e-07
ExecutionTime = 5.78 s  ClockTime = 6 s

Time = 0.189

Courant Number mean: 0.0350804 max: 1.26987
smoothSolver:  Solving for Ux, Initial residual = 0.00148203, Final residual = 6.8534e-06, No Iterations 4
smoothSolver:  Solving for Uy, Initial residual = 0.00208924, Final residual = 9.80005e-06, No Iterations 4
DICPCG:  Solving for p, Initial residual = 0.00726358, Final residual = 0.000360555, No Iterations 45
time step continuity errors : sum local = 6.48704e-09, global = 1.34318e-10, cumulative = 1.44813e-07
DICPCG:  Solving for p, Initial residual = 0.00534166, Final residual = 9.65963e-07, No Iterations 182
time step continuity errors : sum local = 1.74079e-11, global = -7.28796e-14, cumulative = 1.44813e-07
ExecutionTime = 5.88 s  ClockTime = 6 s

Time = 0.1925

Courant Number mean: 0.0351065 max: 1.27026
smoothSolver:  Solving for Ux, Initial residual = 0.00146065, Final residual = 6.69463e-06, No Iterations 4
smoothSolver:  Solving for Uy, Initial residual = 0.00205553, Final residual = 9.56229e-06, No Iterations 4
DICPCG:  Solving for p, Initial residual = 0.00711667, Final residual = 0.000349115, No Iterations 45
time step continuity errors : sum local = 6.29627e-09, global = 1.32405e-10, cumulative = 1.44946e-07
DICPCG:  Solving for p, Initial residual = 0.0052547, Final residual = 9.74551e-07, No Iterations 182
time step continuity errors : sum local = 1.76043e-11, global = -8.15992e-14, cumulative = 1.44945e-07
ExecutionTime = 5.96 s  ClockTime = 6 s

Time = 0.196

Courant Number mean: 0.0351326 max: 1.27064
smoothSolver:  Solving for Ux, Initial residual = 0.00144056, Final residual = 6.54355e-06, No Iterations 4
smoothSolver:  Solving for Uy, Initial residual = 0.00202293, Final residual = 9.33143e-06, No Iterations 4
DICPCG:  Solving for p, Initial residual = 0.00698674, Final residual = 0.000346892, No Iterations 45
time step continuity errors : sum local = 6.27059e-09, global = 1.34213e-10, cumulative = 1.4508e-07
DICPCG:  Solving for p, Initial residual = 0.00516115, Final residual = 9.4294e-07, No Iterations 182
time step continuity errors : sum local = 1.7072e-11, global = -1.37693e-13, cumulative = 1.4508e-07
ExecutionTime = 6.06 s  ClockTime = 6 s

Time = 0.1995

Courant Number mean: 0.0351588 max: 1.27101
smoothSolver:  Solving for Ux, Initial residual = 0.00142101, Final residual = 6.39802e-06, No Iterations 4
smoothSolver:  Solving for Uy, Initial residual = 0.00199139, Final residual = 9.10977e-06, No Iterations 4
DICPCG:  Solving for p, Initial residual = 0.00685951, Final residual = 0.000342521, No Iterations 45
time step continuity errors : sum local = 6.20568e-09, global = 1.33508e-10, cumulative = 1.45213e-07
DICPCG:  Solving for p, Initial residual = 0.00506185, Final residual = 9.28485e-07, No Iterations 182
time step continuity errors : sum local = 1.68482e-11, global = -1.70719e-13, cumulative = 1.45213e-07
ExecutionTime = 6.15 s  ClockTime = 6 s

Time = 0.203

Courant Number mean: 0.0351848 max: 1.27137
smoothSolver:  Solving for Ux, Initial residual = 0.00140214, Final residual = 6.25781e-06, No Iterations 4
smoothSolver:  Solving for Uy, Initial residual = 0.00196079, Final residual = 8.89654e-06, No Iterations 4
DICPCG:  Solving for p, Initial residual = 0.00673378, Final residual = 0.000306782, No Iterations 46
time step continuity errors : sum local = 5.57062e-09, global = 1.50441e-10, cumulative = 1.45363e-07
DICPCG:  Solving for p, Initial residual = 0.00493697, Final residual = 9.91404e-07, No Iterations 181
time step continuity errors : sum local = 1.80297e-11, global = -2.94543e-13, cumulative = 1.45363e-07
ExecutionTime = 6.24 s  ClockTime = 6 s

Time = 0.2065

Courant Number mean: 0.0352107 max: 1.27172
smoothSolver:  Solving for Ux, Initial residual = 0.00138384, Final residual = 6.12269e-06, No Iterations 4
smoothSolver:  Solving for Uy, Initial residual = 0.00193113, Final residual = 8.69116e-06, No Iterations 4
DICPCG:  Solving for p, Initial residual = 0.00660695, Final residual = 0.000304739, No Iterations 46
time step continuity errors : sum local = 5.54573e-09, global = 1.47399e-10, cumulative = 1.4551e-07
DICPCG:  Solving for p, Initial residual = 0.00485443, Final residual = 9.82112e-07, No Iterations 181
time step continuity errors : sum local = 1.78998e-11, global = -3.46649e-13, cumulative = 1.4551e-07
ExecutionTime = 6.34 s  ClockTime = 6 s

Time = 0.21

Courant Number mean: 0.0352364 max: 1.27206
smoothSolver:  Solving for Ux, Initial residual = 0.00136612, Final residual = 5.99248e-06, No Iterations 4
smoothSolver:  Solving for Uy, Initial residual = 0.00190239, Final residual = 8.4936e-06, No Iterations 4
DICPCG:  Solving for p, Initial residual = 0.00649145, Final residual = 0.000301368, No Iterations 46
time step continuity errors : sum local = 5.49619e-09, global = 1.49249e-10, cumulative = 1.45659e-07
DICPCG:  Solving for p, Initial residual = 0.00477013, Final residual = 9.78142e-07, No Iterations 181
time step continuity errors : sum local = 1.78656e-11, global = -3.83335e-13, cumulative = 1.45659e-07
ExecutionTime = 6.43 s  ClockTime = 7 s

Time = 0.2135

Courant Number mean: 0.035262 max: 1.2724
smoothSolver:  Solving for Ux, Initial residual = 0.00134891, Final residual = 5.86687e-06, No Iterations 4
smoothSolver:  Solving for Uy, Initial residual = 0.00187454, Final residual = 8.30362e-06, No Iterations 4
DICPCG:  Solving for p, Initial residual = 0.00637923, Final residual = 0.000297626, No Iterations 46
time step continuity errors : sum local = 5.43951e-09, global = 1.49658e-10, cumulative = 1.45809e-07
DICPCG:  Solving for p, Initial residual = 0.00468923, Final residual = 9.77977e-07, No Iterations 181
time step continuity errors : sum local = 1.79002e-11, global = -4.16132e-13, cumulative = 1.45808e-07
ExecutionTime = 6.53 s  ClockTime = 7 s

Time = 0.217

Courant Number mean: 0.0352874 max: 1.27273
smoothSolver:  Solving for Ux, Initial residual = 0.00133222, Final residual = 5.74573e-06, No Iterations 4
smoothSolver:  Solving for Uy, Initial residual = 0.00184748, Final residual = 8.12073e-06, No Iterations 4
DICPCG:  Solving for p, Initial residual = 0.00627111, Final residual = 0.00029575, No Iterations 46
time step continuity errors : sum local = 5.41649e-09, global = 1.50132e-10, cumulative = 1.45958e-07
DICPCG:  Solving for p, Initial residual = 0.0046117, Final residual = 9.78502e-07, No Iterations 181
time step continuity errors : sum local = 1.79468e-11, global = -4.45981e-13, cumulative = 1.45958e-07
ExecutionTime = 6.62 s  ClockTime = 7 s

Time = 0.2205

Courant Number mean: 0.0353126 max: 1.27305
smoothSolver:  Solving for Ux, Initial residual = 0.00131601, Final residual = 5.62869e-06, No Iterations 4
smoothSolver:  Solving for Uy, Initial residual = 0.00182123, Final residual = 7.9445e-06, No Iterations 4
DICPCG:  Solving for p, Initial residual = 0.00616672, Final residual = 0.000291791, No Iterations 46
time step continuity errors : sum local = 5.3549e-09, global = 1.50563e-10, cumulative = 1.46108e-07
DICPCG:  Solving for p, Initial residual = 0.00453546, Final residual = 9.79282e-07, No Iterations 181
time step continuity errors : sum local = 1.79973e-11, global = -4.74381e-13, cumulative = 1.46108e-07
ExecutionTime = 6.72 s  ClockTime = 7 s

Time = 0.224

Courant Number mean: 0.0353377 max: 1.27337
smoothSolver:  Solving for Ux, Initial residual = 0.00130029, Final residual = 5.51554e-06, No Iterations 4
smoothSolver:  Solving for Uy, Initial residual = 0.00179571, Final residual = 7.77443e-06, No Iterations 4
DICPCG:  Solving for p, Initial residual = 0.00606626, Final residual = 0.000290276, No Iterations 46
time step continuity errors : sum local = 5.33776e-09, global = 1.50954e-10, cumulative = 1.46259e-07
DICPCG:  Solving for p, Initial residual = 0.00446319, Final residual = 9.66511e-07, No Iterations 181
time step continuity errors : sum local = 1.77979e-11, global = -4.98634e-13, cumulative = 1.46258e-07
ExecutionTime = 6.81 s  ClockTime = 7 s

Time = 0.2275

Courant Number mean: 0.0353627 max: 1.27368
smoothSolver:  Solving for Ux, Initial residual = 0.001285, Final residual = 5.40612e-06, No Iterations 4
smoothSolver:  Solving for Uy, Initial residual = 0.00177095, Final residual = 7.61055e-06, No Iterations 4
DICPCG:  Solving for p, Initial residual = 0.00596959, Final residual = 0.000286402, No Iterations 46
time step continuity errors : sum local = 5.27686e-09, global = 1.51365e-10, cumulative = 1.4641e-07
DICPCG:  Solving for p, Initial residual = 0.00439141, Final residual = 9.88726e-07, No Iterations 181
time step continuity errors : sum local = 1.82423e-11, global = -5.24098e-13, cumulative = 1.46409e-07
ExecutionTime = 6.9 s  ClockTime = 7 s

Time = 0.231

Courant Number mean: 0.0353876 max: 1.27398
smoothSolver:  Solving for Ux, Initial residual = 0.00127011, Final residual = 5.30024e-06, No Iterations 4
smoothSolver:  Solving for Uy, Initial residual = 0.0017469, Final residual = 7.4527e-06, No Iterations 4
DICPCG:  Solving for p, Initial residual = 0.00587543, Final residual = 0.000284976, No Iterations 46
time step continuity errors : sum local = 5.2607e-09, global = 1.51778e-10, cumulative = 1.46561e-07
DICPCG:  Solving for p, Initial residual = 0.00432409, Final residual = 9.96087e-07, No Iterations 181
time step continuity errors : sum local = 1.84132e-11, global = -5.45857e-13, cumulative = 1.4656e-07
ExecutionTime = 7 s  ClockTime = 7 s

Time = 0.2345

Courant Number mean: 0.0354124 max: 1.27427
smoothSolver:  Solving for Ux, Initial residual = 0.00125563, Final residual = 5.19781e-06, No Iterations 4
smoothSolver:  Solving for Uy, Initial residual = 0.00172352, Final residual = 7.30035e-06, No Iterations 4
DICPCG:  Solving for p, Initial residual = 0.00578438, Final residual = 0.00027689, No Iterations 46
time step continuity errors : sum local = 5.1211e-09, global = 1.53131e-10, cumulative = 1.46714e-07
DICPCG:  Solving for p, Initial residual = 0.00425856, Final residual = 9.48523e-07, No Iterations 182
time step continuity errors : sum local = 1.75669e-11, global = -5.43632e-13, cumulative = 1.46713e-07
ExecutionTime = 7.08 s  ClockTime = 7 s

Time = 0.238

Courant Number mean: 0.0354371 max: 1.27456
smoothSolver:  Solving for Ux, Initial residual = 0.00124152, Final residual = 5.09882e-06, No Iterations 4
smoothSolver:  Solving for Uy, Initial residual = 0.00170077, Final residual = 7.15331e-06, No Iterations 4
DICPCG:  Solving for p, Initial residual = 0.00569588, Final residual = 0.000279747, No Iterations 46
time step continuity errors : sum local = 5.1836e-09, global = 1.52488e-10, cumulative = 1.46866e-07
DICPCG:  Solving for p, Initial residual = 0.00419418, Final residual = 9.61993e-07, No Iterations 182
time step continuity errors : sum local = 1.78493e-11, global = -5.57312e-13, cumulative = 1.46865e-07
ExecutionTime = 7.18 s  ClockTime = 7 s

Time = 0.2415

Courant Number mean: 0.0354618 max: 1.27484
smoothSolver:  Solving for Ux, Initial residual = 0.0012278, Final residual = 5.00316e-06, No Iterations 4
smoothSolver:  Solving for Uy, Initial residual = 0.00167865, Final residual = 7.01153e-06, No Iterations 4
DICPCG:  Solving for p, Initial residual = 0.00560963, Final residual = 0.000277508, No Iterations 46
time step continuity errors : sum local = 5.15159e-09, global = 1.52679e-10, cumulative = 1.47018e-07
DICPCG:  Solving for p, Initial residual = 0.00412963, Final residual = 9.69761e-07, No Iterations 182
time step continuity errors : sum local = 1.80261e-11, global = -5.69827e-13, cumulative = 1.47017e-07
ExecutionTime = 7.28 s  ClockTime = 7 s

Time = 0.245

Courant Number mean: 0.0354864 max: 1.27512
smoothSolver:  Solving for Ux, Initial residual = 0.00121445, Final residual = 4.91048e-06, No Iterations 4
smoothSolver:  Solving for Uy, Initial residual = 0.00165715, Final residual = 6.87444e-06, No Iterations 4
DICPCG:  Solving for p, Initial residual = 0.00552523, Final residual = 0.000274951, No Iterations 46
time step continuity errors : sum local = 5.11336e-09, global = 1.5341e-10, cumulative = 1.47171e-07
DICPCG:  Solving for p, Initial residual = 0.00406953, Final residual = 9.76888e-07, No Iterations 182
time step continuity errors : sum local = 1.81913e-11, global = -5.84291e-13, cumulative = 1.4717e-07
ExecutionTime = 7.37 s  ClockTime = 7 s

Time = 0.2485

Courant Number mean: 0.0355109 max: 1.27539
smoothSolver:  Solving for Ux, Initial residual = 0.00120143, Final residual = 4.82062e-06, No Iterations 4
smoothSolver:  Solving for Uy, Initial residual = 0.00163622, Final residual = 6.74177e-06, No Iterations 4
DICPCG:  Solving for p, Initial residual = 0.00544413, Final residual = 0.000251487, No Iterations 47
time step continuity errors : sum local = 4.68536e-09, global = 1.64275e-10, cumulative = 1.47334e-07
DICPCG:  Solving for p, Initial residual = 0.00399281, Final residual = 9.81101e-07, No Iterations 189
time step continuity errors : sum local = 1.83022e-11, global = -3.56165e-13, cumulative = 1.47334e-07
ExecutionTime = 7.59 s  ClockTime = 8 s

Time = 0.252

Courant Number mean: 0.0355356 max: 1.27566
smoothSolver:  Solving for Ux, Initial residual = 0.00118871, Final residual = 4.73348e-06, No Iterations 4
smoothSolver:  Solving for Uy, Initial residual = 0.00161582, Final residual = 6.61327e-06, No Iterations 4
DICPCG:  Solving for p, Initial residual = 0.00535711, Final residual = 0.000267415, No Iterations 46
time step continuity errors : sum local = 4.99093e-09, global = 1.50545e-10, cumulative = 1.47484e-07
DICPCG:  Solving for p, Initial residual = 0.00394718, Final residual = 9.67215e-07, No Iterations 183
time step continuity errors : sum local = 1.8075e-11, global = -5.94409e-13, cumulative = 1.47484e-07
ExecutionTime = 7.69 s  ClockTime = 8 s

Time = 0.2555

Courant Number mean: 0.03556 max: 1.27592
smoothSolver:  Solving for Ux, Initial residual = 0.00117634, Final residual = 4.64893e-06, No Iterations 4
smoothSolver:  Solving for Uy, Initial residual = 0.00159597, Final residual = 6.48875e-06, No Iterations 4
DICPCG:  Solving for p, Initial residual = 0.00528826, Final residual = 0.000248254, No Iterations 47
time step continuity errors : sum local = 4.6413e-09, global = 1.66184e-10, cumulative = 1.4765e-07
DICPCG:  Solving for p, Initial residual = 0.00388015, Final residual = 9.41637e-07, No Iterations 190
time step continuity errors : sum local = 1.76268e-11, global = -3.04989e-13, cumulative = 1.4765e-07
ExecutionTime = 7.79 s  ClockTime = 8 s

Time = 0.259

Courant Number mean: 0.0355844 max: 1.27618
smoothSolver:  Solving for Ux, Initial residual = 0.00116422, Final residual = 4.56693e-06, No Iterations 4
smoothSolver:  Solving for Uy, Initial residual = 0.00157664, Final residual = 6.36809e-06, No Iterations 4
DICPCG:  Solving for p, Initial residual = 0.0052067, Final residual = 0.000247777, No Iterations 47
time step continuity errors : sum local = 4.64032e-09, global = 1.62145e-10, cumulative = 1.47812e-07
DICPCG:  Solving for p, Initial residual = 0.00382903, Final residual = 9.86895e-07, No Iterations 190
time step continuity errors : sum local = 1.85056e-11, global = -2.91281e-13, cumulative = 1.47812e-07
ExecutionTime = 7.88 s  ClockTime = 8 s

Time = 0.2625

Courant Number mean: 0.0356087 max: 1.27643
smoothSolver:  Solving for Ux, Initial residual = 0.00115243, Final residual = 4.48734e-06, No Iterations 4
smoothSolver:  Solving for Uy, Initial residual = 0.00155781, Final residual = 6.25104e-06, No Iterations 4
DICPCG:  Solving for p, Initial residual = 0.00513517, Final residual = 0.000246322, No Iterations 47
time step continuity errors : sum local = 4.62076e-09, global = 1.6343e-10, cumulative = 1.47975e-07
DICPCG:  Solving for p, Initial residual = 0.00377418, Final residual = 9.47736e-07, No Iterations 191
time step continuity errors : sum local = 1.78005e-11, global = -2.41039e-13, cumulative = 1.47975e-07
ExecutionTime = 7.97 s  ClockTime = 8 s

Time = 0.266

Courant Number mean: 0.0356328 max: 1.27667
smoothSolver:  Solving for Ux, Initial residual = 0.00114091, Final residual = 4.41002e-06, No Iterations 4
smoothSolver:  Solving for Uy, Initial residual = 0.00153944, Final residual = 6.13746e-06, No Iterations 4
DICPCG:  Solving for p, Initial residual = 0.00506451, Final residual = 0.000246049, No Iterations 47
time step continuity errors : sum local = 4.62322e-09, global = 1.6405e-10, cumulative = 1.48139e-07
DICPCG:  Solving for p, Initial residual = 0.00372402, Final residual = 9.6865e-07, No Iterations 191
time step continuity errors : sum local = 1.82231e-11, global = -2.30049e-13, cumulative = 1.48139e-07
ExecutionTime = 8.08 s  ClockTime = 8 s

Time = 0.2695

Courant Number mean: 0.0356569 max: 1.27692
smoothSolver:  Solving for Ux, Initial residual = 0.00112965, Final residual = 4.33487e-06, No Iterations 4
smoothSolver:  Solving for Uy, Initial residual = 0.00152153, Final residual = 6.02727e-06, No Iterations 4
DICPCG:  Solving for p, Initial residual = 0.0049959, Final residual = 0.000243501, No Iterations 47
time step continuity errors : sum local = 4.58277e-09, global = 1.64486e-10, cumulative = 1.48303e-07
DICPCG:  Solving for p, Initial residual = 0.00367312, Final residual = 9.55058e-07, No Iterations 192
time step continuity errors : sum local = 1.79961e-11, global = -1.99635e-13, cumulative = 1.48303e-07
ExecutionTime = 8.17 s  ClockTime = 8 s

Time = 0.273

Courant Number mean: 0.0356809 max: 1.27715
smoothSolver:  Solving for Ux, Initial residual = 0.00111864, Final residual = 4.26182e-06, No Iterations 4
smoothSolver:  Solving for Uy, Initial residual = 0.00150408, Final residual = 5.9203e-06, No Iterations 4
DICPCG:  Solving for p, Initial residual = 0.00492932, Final residual = 0.000242849, No Iterations 47
time step continuity errors : sum local = 4.57778e-09, global = 1.64466e-10, cumulative = 1.48467e-07
DICPCG:  Solving for p, Initial residual = 0.00362252, Final residual = 9.99148e-07, No Iterations 191
time step continuity errors : sum local = 1.88566e-11, global = -2.13029e-13, cumulative = 1.48467e-07
ExecutionTime = 8.26 s  ClockTime = 8 s

Time = 0.2765

Courant Number mean: 0.0357047 max: 1.27739
smoothSolver:  Solving for Ux, Initial residual = 0.00110788, Final residual = 4.1908e-06, No Iterations 4
smoothSolver:  Solving for Uy, Initial residual = 0.00148705, Final residual = 5.81637e-06, No Iterations 4
DICPCG:  Solving for p, Initial residual = 0.00486347, Final residual = 0.000241546, No Iterations 47
time step continuity errors : sum local = 4.56035e-09, global = 1.64896e-10, cumulative = 1.48632e-07
DICPCG:  Solving for p, Initial residual = 0.00357481, Final residual = 9.88045e-07, No Iterations 192
time step continuity errors : sum local = 1.86761e-11, global = -1.79917e-13, cumulative = 1.48632e-07
ExecutionTime = 8.36 s  ClockTime = 9 s

Time = 0.28

Courant Number mean: 0.0357285 max: 1.27762
smoothSolver:  Solving for Ux, Initial residual = 0.00109735, Final residual = 4.12174e-06, No Iterations 4
smoothSolver:  Solving for Uy, Initial residual = 0.00147043, Final residual = 5.71542e-06, No Iterations 4
DICPCG:  Solving for p, Initial residual = 0.0048002, Final residual = 0.000231222, No Iterations 48
time step continuity errors : sum local = 4.3722e-09, global = 1.75097e-10, cumulative = 1.48807e-07
DICPCG:  Solving for p, Initial residual = 0.00351652, Final residual = 9.86256e-07, No Iterations 196
time step continuity errors : sum local = 1.86709e-11, global = 4.36079e-14, cumulative = 1.48807e-07
ExecutionTime = 8.46 s  ClockTime = 9 s

Time = 0.2835

Courant Number mean: 0.0357523 max: 1.27784
smoothSolver:  Solving for Ux, Initial residual = 0.00108704, Final residual = 4.05457e-06, No Iterations 4
smoothSolver:  Solving for Uy, Initial residual = 0.00145418, Final residual = 5.6173e-06, No Iterations 4
DICPCG:  Solving for p, Initial residual = 0.00473453, Final residual = 0.000231944, No Iterations 48
time step continuity errors : sum local = 4.39262e-09, global = 1.7319e-10, cumulative = 1.4898e-07
DICPCG:  Solving for p, Initial residual = 0.00347605, Final residual = 9.70011e-07, No Iterations 197
time step continuity errors : sum local = 1.83915e-11, global = 7.86218e-14, cumulative = 1.4898e-07
ExecutionTime = 8.56 s  ClockTime = 9 s

Time = 0.287

Courant Number mean: 0.0357759 max: 1.27806
smoothSolver:  Solving for Ux, Initial residual = 0.00107698, Final residual = 3.9892e-06, No Iterations 4
smoothSolver:  Solving for Uy, Initial residual = 0.00143834, Final residual = 5.52191e-06, No Iterations 4
DICPCG:  Solving for p, Initial residual = 0.0046755, Final residual = 0.000229648, No Iterations 48
time step continuity errors : sum local = 4.3557e-09, global = 1.74276e-10, cumulative = 1.49155e-07
DICPCG:  Solving for p, Initial residual = 0.00343066, Final residual = 9.68563e-07, No Iterations 197
time step continuity errors : sum local = 1.83916e-11, global = 9.1484e-14, cumulative = 1.49155e-07
ExecutionTime = 8.65 s  ClockTime = 9 s

Time = 0.2905

Courant Number mean: 0.0357995 max: 1.27828
smoothSolver:  Solving for Ux, Initial residual = 0.00106713, Final residual = 3.92558e-06, No Iterations 4
smoothSolver:  Solving for Uy, Initial residual = 0.00142286, Final residual = 5.42916e-06, No Iterations 4
DICPCG:  Solving for p, Initial residual = 0.00461661, Final residual = 0.000228226, No Iterations 48
time step continuity errors : sum local = 4.33521e-09, global = 1.74278e-10, cumulative = 1.49329e-07
DICPCG:  Solving for p, Initial residual = 0.00338696, Final residual = 9.80513e-07, No Iterations 197
time step continuity errors : sum local = 1.86462e-11, global = 9.26124e-14, cumulative = 1.49329e-07
ExecutionTime = 8.76 s  ClockTime = 9 s

Time = 0.294

Courant Number mean: 0.0358231 max: 1.2785
smoothSolver:  Solving for Ux, Initial residual = 0.00105749, Final residual = 3.86364e-06, No Iterations 4
smoothSolver:  Solving for Uy, Initial residual = 0.00140774, Final residual = 5.33891e-06, No Iterations 4
DICPCG:  Solving for p, Initial residual = 0.00456026, Final residual = 0.000223932, No Iterations 49
time step continuity errors : sum local = 4.25995e-09, global = 1.85473e-10, cumulative = 1.49514e-07
DICPCG:  Solving for p, Initial residual = 0.00333855, Final residual = 9.8812e-07, No Iterations 199
time step continuity errors : sum local = 1.88183e-11, global = 1.65749e-13, cumulative = 1.49515e-07
ExecutionTime = 8.85 s  ClockTime = 9 s

Time = 0.2975

Courant Number mean: 0.0358466 max: 1.27871
smoothSolver:  Solving for Ux, Initial residual = 0.00104803, Final residual = 3.80325e-06, No Iterations 4
smoothSolver:  Solving for Uy, Initial residual = 0.00139297, Final residual = 5.25111e-06, No Iterations 4
DICPCG:  Solving for p, Initial residual = 0.00450252, Final residual = 0.000221202, No Iterations 49
time step continuity errors : sum local = 4.21418e-09, global = 1.84971e-10, cumulative = 1.497e-07
DICPCG:  Solving for p, Initial residual = 0.00329912, Final residual = 9.62381e-07, No Iterations 200
time step continuity errors : sum local = 1.83549e-11, global = 1.53317e-13, cumulative = 1.497e-07
ExecutionTime = 8.96 s  ClockTime = 9 s

Time = 0.301

Courant Number mean: 0.0358701 max: 1.27892
smoothSolver:  Solving for Ux, Initial residual = 0.00103878, Final residual = 3.74439e-06, No Iterations 4
smoothSolver:  Solving for Uy, Initial residual = 0.00137856, Final residual = 5.16562e-06, No Iterations 4
DICPCG:  Solving for p, Initial residual = 0.00444858, Final residual = 0.000218857, No Iterations 49
time step continuity errors : sum local = 4.17548e-09, global = 1.84783e-10, cumulative = 1.49885e-07
DICPCG:  Solving for p, Initial residual = 0.00325572, Final residual = 9.93014e-07, No Iterations 199
time step continuity errors : sum local = 1.89659e-11, global = 1.75709e-13, cumulative = 1.49885e-07
ExecutionTime = 9.06 s  ClockTime = 9 s

Time = 0.3045

Courant Number mean: 0.0358936 max: 1.27912
smoothSolver:  Solving for Ux, Initial residual = 0.00102973, Final residual = 3.68696e-06, No Iterations 4
smoothSolver:  Solving for Uy, Initial residual = 0.00136447, Final residual = 5.08237e-06, No Iterations 4
DICPCG:  Solving for p, Initial residual = 0.00439502, Final residual = 0.000219633, No Iterations 51
time step continuity errors : sum local = 4.1962e-09, global = 2.12795e-10, cumulative = 1.50097e-07
DICPCG:  Solving for p, Initial residual = 0.00320707, Final residual = 9.68774e-07, No Iterations 201
time step continuity errors : sum local = 1.85291e-11, global = 1.46245e-13, cumulative = 1.50098e-07
ExecutionTime = 9.16 s  ClockTime = 9 s

Time = 0.308

Courant Number mean: 0.0359171 max: 1.27932
smoothSolver:  Solving for Ux, Initial residual = 0.00102084, Final residual = 3.63092e-06, No Iterations 4
smoothSolver:  Solving for Uy, Initial residual = 0.00135069, Final residual = 5.00133e-06, No Iterations 4
DICPCG:  Solving for p, Initial residual = 0.0043458, Final residual = 0.000206554, No Iterations 52
time step continuity errors : sum local = 3.95181e-09, global = 2.34754e-10, cumulative = 1.50332e-07
DICPCG:  Solving for p, Initial residual = 0.00317153, Final residual = 9.75406e-07, No Iterations 201
time step continuity errors : sum local = 1.86817e-11, global = 1.54613e-13, cumulative = 1.50333e-07
ExecutionTime = 9.26 s  ClockTime = 9 s

Time = 0.3115

Courant Number mean: 0.0359405 max: 1.27952
smoothSolver:  Solving for Ux, Initial residual = 0.00101215, Final residual = 3.57625e-06, No Iterations 4
smoothSolver:  Solving for Uy, Initial residual = 0.00133723, Final residual = 4.92248e-06, No Iterations 4
DICPCG:  Solving for p, Initial residual = 0.00429373, Final residual = 0.000204728, No Iterations 52
time step continuity errors : sum local = 3.92225e-09, global = 2.36044e-10, cumulative = 1.50569e-07
DICPCG:  Solving for p, Initial residual = 0.00313796, Final residual = 9.76293e-07, No Iterations 201
time step continuity errors : sum local = 1.87242e-11, global = 1.49511e-13, cumulative = 1.50569e-07
ExecutionTime = 9.36 s  ClockTime = 10 s

Time = 0.315

Courant Number mean: 0.0359639 max: 1.27971
smoothSolver:  Solving for Ux, Initial residual = 0.00100364, Final residual = 3.52293e-06, No Iterations 4
smoothSolver:  Solving for Uy, Initial residual = 0.0013241, Final residual = 4.84567e-06, No Iterations 4
DICPCG:  Solving for p, Initial residual = 0.00424615, Final residual = 0.000203222, No Iterations 52
time step continuity errors : sum local = 3.89868e-09, global = 2.34715e-10, cumulative = 1.50803e-07
DICPCG:  Solving for p, Initial residual = 0.00309976, Final residual = 9.71224e-07, No Iterations 201
time step continuity errors : sum local = 1.8652e-11, global = 1.4589e-13, cumulative = 1.50804e-07
ExecutionTime = 9.46 s  ClockTime = 10 s

Time = 0.3185

Courant Number mean: 0.0359872 max: 1.27991
smoothSolver:  Solving for Ux, Initial residual = 0.000995305, Final residual = 3.47088e-06, No Iterations 4
smoothSolver:  Solving for Uy, Initial residual = 0.00131127, Final residual = 4.7708e-06, No Iterations 4
DICPCG:  Solving for p, Initial residual = 0.00419875, Final residual = 0.000203075, No Iterations 52
time step continuity errors : sum local = 3.90107e-09, global = 2.34734e-10, cumulative = 1.51038e-07
DICPCG:  Solving for p, Initial residual = 0.00306687, Final residual = 9.6798e-07, No Iterations 201
time step continuity errors : sum local = 1.86144e-11, global = 1.48162e-13, cumulative = 1.51038e-07
ExecutionTime = 9.56 s  ClockTime = 10 s

Time = 0.322

Courant Number mean: 0.0360104 max: 1.2801
smoothSolver:  Solving for Ux, Initial residual = 0.000987132, Final residual = 3.42004e-06, No Iterations 4
smoothSolver:  Solving for Uy, Initial residual = 0.00129872, Final residual = 4.6978e-06, No Iterations 4
DICPCG:  Solving for p, Initial residual = 0.0041538, Final residual = 0.000200917, No Iterations 52
time step continuity errors : sum local = 3.86469e-09, global = 2.34355e-10, cumulative = 1.51273e-07
DICPCG:  Solving for p, Initial residual = 0.00303031, Final residual = 9.56758e-07, No Iterations 201
time step continuity errors : sum local = 1.84226e-11, global = 1.48992e-13, cumulative = 1.51273e-07
ExecutionTime = 9.66 s  ClockTime = 10 s

Time = 0.3255

Courant Number mean: 0.0360335 max: 1.28028
smoothSolver:  Solving for Ux, Initial residual = 0.000979121, Final residual = 3.37038e-06, No Iterations 4
smoothSolver:  Solving for Uy, Initial residual = 0.00128645, Final residual = 4.6266e-06, No Iterations 4
DICPCG:  Solving for p, Initial residual = 0.00410896, Final residual = 0.000203215, No Iterations 52
time step continuity errors : sum local = 3.91401e-09, global = 2.38094e-10, cumulative = 1.51511e-07
DICPCG:  Solving for p, Initial residual = 0.00299456, Final residual = 9.64101e-07, No Iterations 201
time step continuity errors : sum local = 1.85881e-11, global = 1.43035e-13, cumulative = 1.51511e-07
ExecutionTime = 9.77 s  ClockTime = 10 s

Time = 0.329

Courant Number mean: 0.0360565 max: 1.28047
[...]
smoothSolver:  Solving for Uy, Initial residual = 7.22229e-05, Final residual = 1.48994e-06, No Iterations 1
DICPCG:  Solving for p, Initial residual = 6.45472e-05, Final residual = 3.17114e-06, No Iterations 52
time step continuity errors : sum local = 9.94912e-11, global = -8.88717e-12, cumulative = 1.44073e-07
DICPCG:  Solving for p, Initial residual = 6.01855e-05, Final residual = 9.66123e-07, No Iterations 76
time step continuity errors : sum local = 3.0311e-11, global = 3.30665e-12, cumulative = 1.44076e-07
ExecutionTime = 375.03 s  ClockTime = 376 s

Time = 14.9905

Courant Number mean: 0.0516038 max: 1.33234
smoothSolver:  Solving for Ux, Initial residual = 5.58325e-05, Final residual = 7.35308e-07, No Iterations 1
smoothSolver:  Solving for Uy, Initial residual = 7.21479e-05, Final residual = 1.48862e-06, No Iterations 1
DICPCG:  Solving for p, Initial residual = 6.4544e-05, Final residual = 3.0983e-06, No Iterations 49
time step continuity errors : sum local = 9.72063e-11, global = 9.72134e-13, cumulative = 1.44077e-07
DICPCG:  Solving for p, Initial residual = 6.0071e-05, Final residual = 9.98095e-07, No Iterations 136
time step continuity errors : sum local = 3.13143e-11, global = 3.86383e-13, cumulative = 1.44077e-07
ExecutionTime = 375.1 s  ClockTime = 377 s

Time = 14.994

Courant Number mean: 0.0516034 max: 1.33234
smoothSolver:  Solving for Ux, Initial residual = 5.57685e-05, Final residual = 7.33865e-07, No Iterations 1
smoothSolver:  Solving for Uy, Initial residual = 7.20642e-05, Final residual = 1.487e-06, No Iterations 1
DICPCG:  Solving for p, Initial residual = 6.43875e-05, Final residual = 3.07333e-06, No Iterations 54
time step continuity errors : sum local = 9.64267e-11, global = -9.54475e-12, cumulative = 1.44068e-07
DICPCG:  Solving for p, Initial residual = 5.98315e-05, Final residual = 9.81392e-07, No Iterations 75
time step continuity errors : sum local = 3.07914e-11, global = 2.55189e-12, cumulative = 1.4407e-07
ExecutionTime = 375.16 s  ClockTime = 377 s

Time = 14.9975

Courant Number mean: 0.051603 max: 1.33234
smoothSolver:  Solving for Ux, Initial residual = 5.56997e-05, Final residual = 7.33064e-07, No Iterations 1
smoothSolver:  Solving for Uy, Initial residual = 7.19892e-05, Final residual = 1.48568e-06, No Iterations 1
DICPCG:  Solving for p, Initial residual = 6.45358e-05, Final residual = 3.12356e-06, No Iterations 49
time step continuity errors : sum local = 9.80031e-11, global = -2.97613e-13, cumulative = 1.4407e-07
DICPCG:  Solving for p, Initial residual = 5.99593e-05, Final residual = 9.87578e-07, No Iterations 137
time step continuity errors : sum local = 3.09857e-11, global = 4.61423e-13, cumulative = 1.4407e-07
ExecutionTime = 375.24 s  ClockTime = 377 s

Time = 15.001

Courant Number mean: 0.0516026 max: 1.33234
smoothSolver:  Solving for Ux, Initial residual = 5.56352e-05, Final residual = 7.31643e-07, No Iterations 1
smoothSolver:  Solving for Uy, Initial residual = 7.19052e-05, Final residual = 1.48405e-06, No Iterations 1
DICPCG:  Solving for p, Initial residual = 6.43142e-05, Final residual = 3.12885e-06, No Iterations 52
time step continuity errors : sum local = 9.81723e-11, global = -8.78499e-12, cumulative = 1.44062e-07
DICPCG:  Solving for p, Initial residual = 5.99562e-05, Final residual = 9.54346e-07, No Iterations 76
time step continuity errors : sum local = 2.9944e-11, global = 3.24204e-12, cumulative = 1.44065e-07
ExecutionTime = 375.42 s  ClockTime = 377 s

End

Finalising parallel run
TACC:  Shutdown complete. Exiting. 
/*---------------------------------------------------------------------------*\
  =========                 |
  \\      /  F ield         | OpenFOAM: The Open Source CFD Toolbox
   \\    /   O peration     | Website:  https://openfoam.org
    \\  /    A nd           | Version:  6.0
     \\/     M anipulation  |
\*---------------------------------------------------------------------------*/
Build  : 6.0
Exec   : reconstructPar
Date   : May 10 2020
Time   : 23:42:43
Host   : "c441-132.stampede2.tacc.utexas.edu"
PID    : 98071
I/O    : uncollated
Case   : /work/05113/danieler/stampede2/CFD-Final-Project/circular-cylinder-3-10
nProcs : 1
sigFpe : Enabling floating point exception trapping (FOAM_SIGFPE).
fileModificationChecking : Monitoring run-time modified files using timeStampMaster (fileModificationSkew 10)
allowSystemOperations : Allowing user-supplied system call operations

// * * * * * * * * * * * * * * * * * * * * * * * * * * * * * * * * * * * * * //
Create time



Reconstructing fields for mesh region0

Time = 0.2485

Reconstructing FV fields

    Reconstructing volScalarFields

        p

    Reconstructing volVectorFields

        U

    Reconstructing surfaceScalarFields

        phi

Reconstructing point fields

No point fields

No lagrangian fields

Time = 0.5005

Reconstructing FV fields

    Reconstructing volScalarFields

        p

    Reconstructing volVectorFields

        U

    Reconstructing surfaceScalarFields

        phi

Reconstructing point fields

No point fields

No lagrangian fields

Time = 0.749

Reconstructing FV fields

    Reconstructing volScalarFields

        p

    Reconstructing volVectorFields

        U

    Reconstructing surfaceScalarFields

        phi

Reconstructing point fields

No point fields

No lagrangian fields

Time = 1.001

Reconstructing FV fields

    Reconstructing volScalarFields

        p

    Reconstructing volVectorFields

        U

    Reconstructing surfaceScalarFields

        phi

Reconstructing point fields

No point fields

No lagrangian fields

Time = 1.2495

Reconstructing FV fields

    Reconstructing volScalarFields

        p

    Reconstructing volVectorFields

        U

    Reconstructing surfaceScalarFields

        phi

Reconstructing point fields

No point fields

No lagrangian fields

Time = 1.5015

Reconstructing FV fields

    Reconstructing volScalarFields

        p

    Reconstructing volVectorFields

        U

    Reconstructing surfaceScalarFields

        phi

Reconstructing point fields

No point fields

No lagrangian fields

Time = 1.75

Reconstructing FV fields

    Reconstructing volScalarFields

        p

    Reconstructing volVectorFields

        U

    Reconstructing surfaceScalarFields

        phi

Reconstructing point fields

No point fields

No lagrangian fields

Time = 1.9985

Reconstructing FV fields

    Reconstructing volScalarFields

        p

    Reconstructing volVectorFields

        U

    Reconstructing surfaceScalarFields

        phi

Reconstructing point fields

No point fields

No lagrangian fields

Time = 2.2505

Reconstructing FV fields

    Reconstructing volScalarFields

        p

    Reconstructing volVectorFields

        U

    Reconstructing surfaceScalarFields

        phi

Reconstructing point fields

No point fields

No lagrangian fields

Time = 2.499

Reconstructing FV fields

    Reconstructing volScalarFields

        p

    Reconstructing volVectorFields

        U

    Reconstructing surfaceScalarFields

        phi

Reconstructing point fields

No point fields

No lagrangian fields

Time = 2.751

Reconstructing FV fields

    Reconstructing volScalarFields

        p

    Reconstructing volVectorFields

        U

    Reconstructing surfaceScalarFields

        phi

Reconstructing point fields

No point fields

No lagrangian fields

Time = 2.9995

Reconstructing FV fields

    Reconstructing volScalarFields

        p

    Reconstructing volVectorFields

        U

    Reconstructing surfaceScalarFields

        phi

Reconstructing point fields

No point fields

No lagrangian fields

Time = 3.2515

Reconstructing FV fields

    Reconstructing volScalarFields

        p

    Reconstructing volVectorFields

        U

    Reconstructing surfaceScalarFields

        phi

Reconstructing point fields

No point fields

No lagrangian fields

Time = 3.5

Reconstructing FV fields

    Reconstructing volScalarFields

        p

    Reconstructing volVectorFields

        U

    Reconstructing surfaceScalarFields

        phi

Reconstructing point fields

No point fields

No lagrangian fields

Time = 3.7485

Reconstructing FV fields

    Reconstructing volScalarFields

        p

    Reconstructing volVectorFields

        U

    Reconstructing surfaceScalarFields

        phi

Reconstructing point fields

No point fields

No lagrangian fields

Time = 4.0005

Reconstructing FV fields

    Reconstructing volScalarFields

        p

    Reconstructing volVectorFields

        U

    Reconstructing surfaceScalarFields

        phi

Reconstructing point fields

No point fields

No lagrangian fields

Time = 4.249

Reconstructing FV fields

    Reconstructing volScalarFields

        p

    Reconstructing volVectorFields

        U

    Reconstructing surfaceScalarFields

        phi

Reconstructing point fields

No point fields

No lagrangian fields

Time = 4.501

Reconstructing FV fields

    Reconstructing volScalarFields

        p

    Reconstructing volVectorFields

        U

    Reconstructing surfaceScalarFields

        phi

Reconstructing point fields

No point fields

No lagrangian fields

Time = 4.7495

Reconstructing FV fields

    Reconstructing volScalarFields

        p

    Reconstructing volVectorFields

        U

    Reconstructing surfaceScalarFields

        phi

Reconstructing point fields

No point fields

No lagrangian fields

Time = 5.0015

Reconstructing FV fields

    Reconstructing volScalarFields

        p

    Reconstructing volVectorFields

        U

    Reconstructing surfaceScalarFields

        phi

Reconstructing point fields

No point fields

No lagrangian fields

Time = 5.25

Reconstructing FV fields

    Reconstructing volScalarFields

        p

    Reconstructing volVectorFields

        U

    Reconstructing surfaceScalarFields

        phi

Reconstructing point fields

No point fields

No lagrangian fields

Time = 5.4985

Reconstructing FV fields

    Reconstructing volScalarFields

        p

    Reconstructing volVectorFields

        U

    Reconstructing surfaceScalarFields

        phi

Reconstructing point fields

No point fields

No lagrangian fields

Time = 5.7505

Reconstructing FV fields

    Reconstructing volScalarFields

        p

    Reconstructing volVectorFields

        U

    Reconstructing surfaceScalarFields

        phi

Reconstructing point fields

No point fields

No lagrangian fields

Time = 5.999

Reconstructing FV fields

    Reconstructing volScalarFields

        p

    Reconstructing volVectorFields

        U

    Reconstructing surfaceScalarFields

        phi

Reconstructing point fields

No point fields

No lagrangian fields

Time = 6.251

Reconstructing FV fields

    Reconstructing volScalarFields

        p

    Reconstructing volVectorFields

        U

    Reconstructing surfaceScalarFields

        phi

Reconstructing point fields

No point fields

No lagrangian fields

Time = 6.4995

Reconstructing FV fields

    Reconstructing volScalarFields

        p

    Reconstructing volVectorFields

        U

    Reconstructing surfaceScalarFields

        phi

Reconstructing point fields

No point fields

No lagrangian fields

Time = 6.7515

Reconstructing FV fields

    Reconstructing volScalarFields

        p

    Reconstructing volVectorFields

        U

    Reconstructing surfaceScalarFields

        phi

Reconstructing point fields

No point fields

No lagrangian fields

Time = 7

Reconstructing FV fields

    Reconstructing volScalarFields

        p

    Reconstructing volVectorFields

        U

    Reconstructing surfaceScalarFields

        phi

Reconstructing point fields

No point fields

No lagrangian fields

Time = 7.2485

Reconstructing FV fields

    Reconstructing volScalarFields

        p

    Reconstructing volVectorFields

        U

    Reconstructing surfaceScalarFields

        phi

Reconstructing point fields

No point fields

No lagrangian fields

Time = 7.5005

Reconstructing FV fields

    Reconstructing volScalarFields

        p

    Reconstructing volVectorFields

        U

    Reconstructing surfaceScalarFields

        phi

Reconstructing point fields

No point fields

No lagrangian fields

Time = 7.749

Reconstructing FV fields

    Reconstructing volScalarFields

        p

    Reconstructing volVectorFields

        U

    Reconstructing surfaceScalarFields

        phi

Reconstructing point fields

No point fields

No lagrangian fields

Time = 8.001

Reconstructing FV fields

    Reconstructing volScalarFields

        p

    Reconstructing volVectorFields

        U

    Reconstructing surfaceScalarFields

        phi

Reconstructing point fields

No point fields

No lagrangian fields

Time = 8.2495

Reconstructing FV fields

    Reconstructing volScalarFields

        p

    Reconstructing volVectorFields

        U

    Reconstructing surfaceScalarFields

        phi

Reconstructing point fields

No point fields

No lagrangian fields

Time = 8.5015

Reconstructing FV fields

    Reconstructing volScalarFields

        p

    Reconstructing volVectorFields

        U

    Reconstructing surfaceScalarFields

        phi

Reconstructing point fields

No point fields

No lagrangian fields

Time = 8.75

Reconstructing FV fields

    Reconstructing volScalarFields

        p

    Reconstructing volVectorFields

        U

    Reconstructing surfaceScalarFields

        phi

Reconstructing point fields

No point fields

No lagrangian fields

Time = 8.9985

Reconstructing FV fields

    Reconstructing volScalarFields

        p

    Reconstructing volVectorFields

        U

    Reconstructing surfaceScalarFields

        phi

Reconstructing point fields

No point fields

No lagrangian fields

Time = 9.2505

Reconstructing FV fields

    Reconstructing volScalarFields

        p

    Reconstructing volVectorFields

        U

    Reconstructing surfaceScalarFields

        phi

Reconstructing point fields

No point fields

No lagrangian fields

Time = 9.499

Reconstructing FV fields

    Reconstructing volScalarFields

        p

    Reconstructing volVectorFields

        U

    Reconstructing surfaceScalarFields

        phi

Reconstructing point fields

No point fields

No lagrangian fields

Time = 9.751

Reconstructing FV fields

    Reconstructing volScalarFields

        p

    Reconstructing volVectorFields

        U

    Reconstructing surfaceScalarFields

        phi

Reconstructing point fields

No point fields

No lagrangian fields

Time = 9.9995

Reconstructing FV fields

    Reconstructing volScalarFields

        p

    Reconstructing volVectorFields

        U

    Reconstructing surfaceScalarFields

        phi

Reconstructing point fields

No point fields

No lagrangian fields

Time = 10.2515

Reconstructing FV fields

    Reconstructing volScalarFields

        p

    Reconstructing volVectorFields

        U

    Reconstructing surfaceScalarFields

        phi

Reconstructing point fields

No point fields

No lagrangian fields

Time = 10.5

Reconstructing FV fields

    Reconstructing volScalarFields

        p

    Reconstructing volVectorFields

        U

    Reconstructing surfaceScalarFields

        phi

Reconstructing point fields

No point fields

No lagrangian fields

Time = 10.7485

Reconstructing FV fields

    Reconstructing volScalarFields

        p

    Reconstructing volVectorFields

        U

    Reconstructing surfaceScalarFields

        phi

Reconstructing point fields

No point fields

No lagrangian fields

Time = 11.0005

Reconstructing FV fields

    Reconstructing volScalarFields

        p

    Reconstructing volVectorFields

        U

    Reconstructing surfaceScalarFields

        phi

Reconstructing point fields

No point fields

No lagrangian fields

Time = 11.249

Reconstructing FV fields

    Reconstructing volScalarFields

        p

    Reconstructing volVectorFields

        U

    Reconstructing surfaceScalarFields

        phi

Reconstructing point fields

No point fields

No lagrangian fields

Time = 11.501

Reconstructing FV fields

    Reconstructing volScalarFields

        p

    Reconstructing volVectorFields

        U

    Reconstructing surfaceScalarFields

        phi

Reconstructing point fields

No point fields

No lagrangian fields

Time = 11.7495

Reconstructing FV fields

    Reconstructing volScalarFields

        p

    Reconstructing volVectorFields

        U

    Reconstructing surfaceScalarFields

        phi

Reconstructing point fields

No point fields

No lagrangian fields

Time = 12.0015

Reconstructing FV fields

    Reconstructing volScalarFields

        p

    Reconstructing volVectorFields

        U

    Reconstructing surfaceScalarFields

        phi

Reconstructing point fields

No point fields

No lagrangian fields

Time = 12.25

Reconstructing FV fields

    Reconstructing volScalarFields

        p

    Reconstructing volVectorFields

        U

    Reconstructing surfaceScalarFields

        phi

Reconstructing point fields

No point fields

No lagrangian fields

Time = 12.4985

Reconstructing FV fields

    Reconstructing volScalarFields

        p

    Reconstructing volVectorFields

        U

    Reconstructing surfaceScalarFields

        phi

Reconstructing point fields

No point fields

No lagrangian fields

Time = 12.7505

Reconstructing FV fields

    Reconstructing volScalarFields

        p

    Reconstructing volVectorFields

        U

    Reconstructing surfaceScalarFields

        phi

Reconstructing point fields

No point fields

No lagrangian fields

Time = 12.999

Reconstructing FV fields

    Reconstructing volScalarFields

        p

    Reconstructing volVectorFields

        U

    Reconstructing surfaceScalarFields

        phi

Reconstructing point fields

No point fields

No lagrangian fields

Time = 13.251

Reconstructing FV fields

    Reconstructing volScalarFields

        p

    Reconstructing volVectorFields

        U

    Reconstructing surfaceScalarFields

        phi

Reconstructing point fields

No point fields

No lagrangian fields

Time = 13.4995

Reconstructing FV fields

    Reconstructing volScalarFields

        p

    Reconstructing volVectorFields

        U

    Reconstructing surfaceScalarFields

        phi

Reconstructing point fields

No point fields

No lagrangian fields

Time = 13.7515

Reconstructing FV fields

    Reconstructing volScalarFields

        p

    Reconstructing volVectorFields

        U

    Reconstructing surfaceScalarFields

        phi

Reconstructing point fields

No point fields

No lagrangian fields

Time = 14

Reconstructing FV fields

    Reconstructing volScalarFields

        p

    Reconstructing volVectorFields

        U

    Reconstructing surfaceScalarFields

        phi

Reconstructing point fields

No point fields

No lagrangian fields

Time = 14.2485

Reconstructing FV fields

    Reconstructing volScalarFields

        p

    Reconstructing volVectorFields

        U

    Reconstructing surfaceScalarFields

        phi

Reconstructing point fields

No point fields

No lagrangian fields

Time = 14.5005

Reconstructing FV fields

    Reconstructing volScalarFields

        p

    Reconstructing volVectorFields

        U

    Reconstructing surfaceScalarFields

        phi

Reconstructing point fields

No point fields

No lagrangian fields

Time = 14.749

Reconstructing FV fields

    Reconstructing volScalarFields

        p

    Reconstructing volVectorFields

        U

    Reconstructing surfaceScalarFields

        phi

Reconstructing point fields

No point fields

No lagrangian fields

Time = 15.001

Reconstructing FV fields

    Reconstructing volScalarFields

        p

    Reconstructing volVectorFields

        U

    Reconstructing surfaceScalarFields

        phi

Reconstructing point fields

No point fields

No lagrangian fields


End

