/*---------------------------------------------------------------------------*\
| =========                 |                                                 |
| \\      /  F ield         | OpenFOAM: The Open Source CFD Toolbox           |
|  \\    /   O peration     | Version:  v1912                                 |
|   \\  /    A nd           | Website:  www.openfoam.com                      |
|    \\/     M anipulation  |                                                 |
\*---------------------------------------------------------------------------*/
Build  : _f3950763fe-20191219 OPENFOAM=1912
Arch   : "LSB;label=32;scalar=64"
Exec   : icoFoam
Date   : May 13 2020
Time   : 17:33:12
Host   : 0727d5773fe8
PID    : 466
I/O    : uncollated
Case   : /home/ofuser/workingDir/CFD/FinalProject/CFD-Final-Project/circular-cylinder-3-1
nProcs : 1
trapFpe: Floating point exception trapping enabled (FOAM_SIGFPE).
fileModificationChecking : Monitoring run-time modified files using timeStampMaster (fileModificationSkew 10)
allowSystemOperations : Allowing user-supplied system call operations

// * * * * * * * * * * * * * * * * * * * * * * * * * * * * * * * * * * * * * //
Create time

Create mesh for time = 0


PISO: Operating solver in PISO mode

Reading transportProperties

Reading field p

Reading field U

Reading/calculating face flux field phi


Starting time loop

Time = 0.001

Courant Number mean: 0.0089189 max: 0.0942877
smoothSolver:  Solving for Ux, Initial residual = 1, Final residual = 2.06184e-06, No Iterations 5
smoothSolver:  Solving for Uy, Initial residual = 1, Final residual = 2.01461e-06, No Iterations 5
DICPCG:  Solving for p, Initial residual = 1, Final residual = 0.0463969, No Iterations 140
time step continuity errors : sum local = 8.41839e-07, global = 1.35737e-09, cumulative = 1.35737e-09
DICPCG:  Solving for p, Initial residual = 0.167516, Final residual = 8.93842e-07, No Iterations 237
time step continuity errors : sum local = 7.99807e-11, global = 2.28966e-13, cumulative = 1.3576e-09
ExecutionTime = 0.28 s  ClockTime = 1 s

Time = 0.002

Courant Number mean: 0.00927145 max: 0.134193
smoothSolver:  Solving for Ux, Initial residual = 0.292669, Final residual = 1.80737e-06, No Iterations 4
smoothSolver:  Solving for Uy, Initial residual = 0.332169, Final residual = 2.24075e-06, No Iterations 4
DICPCG:  Solving for p, Initial residual = 0.297344, Final residual = 0.0141395, No Iterations 142
time step continuity errors : sum local = 1.13451e-06, global = -4.60812e-09, cumulative = -3.25052e-09
DICPCG:  Solving for p, Initial residual = 0.425051, Final residual = 9.05538e-07, No Iterations 249
time step continuity errors : sum local = 3.34624e-11, global = -4.9498e-14, cumulative = -3.25057e-09
ExecutionTime = 0.42 s  ClockTime = 1 s

Time = 0.003

Courant Number mean: 0.00928113 max: 0.134305
smoothSolver:  Solving for Ux, Initial residual = 0.0148716, Final residual = 1.68739e-06, No Iterations 3
smoothSolver:  Solving for Uy, Initial residual = 0.0287312, Final residual = 9.06766e-07, No Iterations 3
DICPCG:  Solving for p, Initial residual = 0.558761, Final residual = 0.0276681, No Iterations 59
time step continuity errors : sum local = 3.17515e-07, global = -2.42956e-08, cumulative = -2.75461e-08
DICPCG:  Solving for p, Initial residual = 0.221194, Final residual = 9.92701e-07, No Iterations 229
time step continuity errors : sum local = 6.78561e-12, global = -2.61e-14, cumulative = -2.75462e-08
ExecutionTime = 0.53 s  ClockTime = 1 s

Time = 0.004

Courant Number mean: 0.00928314 max: 0.132222
smoothSolver:  Solving for Ux, Initial residual = 0.0108162, Final residual = 1.03529e-06, No Iterations 3
smoothSolver:  Solving for Uy, Initial residual = 0.0119594, Final residual = 7.39546e-07, No Iterations 3
DICPCG:  Solving for p, Initial residual = 0.28001, Final residual = 0.0137953, No Iterations 39
time step continuity errors : sum local = 8.20277e-08, global = 5.62854e-09, cumulative = -2.19176e-08
DICPCG:  Solving for p, Initial residual = 0.076799, Final residual = 8.87429e-07, No Iterations 218
time step continuity errors : sum local = 4.04273e-12, global = -2.71855e-14, cumulative = -2.19176e-08
ExecutionTime = 0.62 s  ClockTime = 1 s

Time = 0.005

Courant Number mean: 0.0092846 max: 0.131165
smoothSolver:  Solving for Ux, Initial residual = 0.00809116, Final residual = 8.7131e-07, No Iterations 3
smoothSolver:  Solving for Uy, Initial residual = 0.00883563, Final residual = 9.94374e-06, No Iterations 2
DICPCG:  Solving for p, Initial residual = 0.162268, Final residual = 0.00770088, No Iterations 43
time step continuity errors : sum local = 2.85252e-08, global = 1.79517e-09, cumulative = -2.01225e-08
DICPCG:  Solving for p, Initial residual = 0.0346313, Final residual = 8.7735e-07, No Iterations 213
time step continuity errors : sum local = 2.82626e-12, global = -9.94397e-15, cumulative = -2.01225e-08
ExecutionTime = 0.71 s  ClockTime = 1 s

Time = 0.006

Courant Number mean: 0.00928561 max: 0.129742
smoothSolver:  Solving for Ux, Initial residual = 0.00680259, Final residual = 7.95656e-07, No Iterations 3
smoothSolver:  Solving for Uy, Initial residual = 0.00713724, Final residual = 8.84183e-06, No Iterations 2
DICPCG:  Solving for p, Initial residual = 0.121419, Final residual = 0.00548405, No Iterations 57
time step continuity errors : sum local = 1.54253e-08, global = 1.83969e-09, cumulative = -1.82828e-08
DICPCG:  Solving for p, Initial residual = 0.0255728, Final residual = 9.57572e-07, No Iterations 203
time step continuity errors : sum local = 2.43898e-12, global = 1.85108e-14, cumulative = -1.82828e-08
ExecutionTime = 0.81 s  ClockTime = 1 s

Time = 0.007

Courant Number mean: 0.00928629 max: 0.128079
smoothSolver:  Solving for Ux, Initial residual = 0.00587291, Final residual = 7.34823e-07, No Iterations 3
smoothSolver:  Solving for Uy, Initial residual = 0.00597113, Final residual = 7.99185e-06, No Iterations 2
DICPCG:  Solving for p, Initial residual = 0.0977681, Final residual = 0.0044611, No Iterations 58
time step continuity errors : sum local = 1.00988e-08, global = 1.33685e-09, cumulative = -1.69459e-08
DICPCG:  Solving for p, Initial residual = 0.0208322, Final residual = 9.31714e-07, No Iterations 202
time step continuity errors : sum local = 1.95741e-12, global = 1.47672e-14, cumulative = -1.69459e-08
ExecutionTime = 0.91 s  ClockTime = 1 s

Time = 0.008

Courant Number mean: 0.00928673 max: 0.12655
smoothSolver:  Solving for Ux, Initial residual = 0.00517449, Final residual = 9.32628e-06, No Iterations 2
smoothSolver:  Solving for Uy, Initial residual = 0.00514911, Final residual = 7.30535e-06, No Iterations 2
DICPCG:  Solving for p, Initial residual = 0.0807853, Final residual = 0.00392944, No Iterations 58
time step continuity errors : sum local = 7.47271e-09, global = 1.03999e-09, cumulative = -1.59059e-08
DICPCG:  Solving for p, Initial residual = 0.0176828, Final residual = 9.82532e-07, No Iterations 201
time step continuity errors : sum local = 1.76342e-12, global = 1.3692e-14, cumulative = -1.59059e-08
ExecutionTime = 1.01 s  ClockTime = 2 s

Time = 0.009

Courant Number mean: 0.00928699 max: 0.125969
smoothSolver:  Solving for Ux, Initial residual = 0.0046363, Final residual = 8.70219e-06, No Iterations 2
smoothSolver:  Solving for Uy, Initial residual = 0.00454565, Final residual = 6.73061e-06, No Iterations 2
DICPCG:  Solving for p, Initial residual = 0.0686198, Final residual = 0.00310079, No Iterations 59
time step continuity errors : sum local = 5.11378e-09, global = 8.27009e-10, cumulative = -1.50789e-08
DICPCG:  Solving for p, Initial residual = 0.0149861, Final residual = 9.21732e-07, No Iterations 200
time step continuity errors : sum local = 1.45253e-12, global = 1.03744e-14, cumulative = -1.50789e-08
ExecutionTime = 1.1 s  ClockTime = 2 s

Time = 0.01

Courant Number mean: 0.00928711 max: 0.125268
smoothSolver:  Solving for Ux, Initial residual = 0.00421486, Final residual = 8.17382e-06, No Iterations 2
smoothSolver:  Solving for Uy, Initial residual = 0.0040876, Final residual = 6.24782e-06, No Iterations 2
DICPCG:  Solving for p, Initial residual = 0.0591567, Final residual = 0.00272089, No Iterations 59
time step continuity errors : sum local = 3.9853e-09, global = 6.61798e-10, cumulative = -1.44171e-08
DICPCG:  Solving for p, Initial residual = 0.0131386, Final residual = 8.71501e-07, No Iterations 200
time step continuity errors : sum local = 1.22929e-12, global = 9.88132e-15, cumulative = -1.44171e-08
ExecutionTime = 1.2 s  ClockTime = 2 s

Time = 0.011

Courant Number mean: 0.00928712 max: 0.124474
smoothSolver:  Solving for Ux, Initial residual = 0.00387558, Final residual = 7.72068e-06, No Iterations 2
smoothSolver:  Solving for Uy, Initial residual = 0.00372315, Final residual = 5.85369e-06, No Iterations 2
DICPCG:  Solving for p, Initial residual = 0.0516342, Final residual = 0.00243407, No Iterations 59
time step continuity errors : sum local = 3.21894e-09, global = 5.35733e-10, cumulative = -1.38813e-08
DICPCG:  Solving for p, Initial residual = 0.0116307, Final residual = 9.32221e-07, No Iterations 199
time step continuity errors : sum local = 1.19341e-12, global = 8.12518e-15, cumulative = -1.38813e-08
ExecutionTime = 1.29 s  ClockTime = 2 s

Time = 0.012

Courant Number mean: 0.00928705 max: 0.123611
smoothSolver:  Solving for Ux, Initial residual = 0.00359557, Final residual = 7.33382e-06, No Iterations 2
smoothSolver:  Solving for Uy, Initial residual = 0.00342531, Final residual = 5.51723e-06, No Iterations 2
DICPCG:  Solving for p, Initial residual = 0.0457458, Final residual = 0.00222713, No Iterations 59
time step continuity errors : sum local = 2.69154e-09, global = 4.38853e-10, cumulative = -1.34425e-08
DICPCG:  Solving for p, Initial residual = 0.010395, Final residual = 8.76528e-07, No Iterations 199
time step continuity errors : sum local = 1.02911e-12, global = 7.10619e-15, cumulative = -1.34425e-08
ExecutionTime = 1.39 s  ClockTime = 2 s

Time = 0.013

Courant Number mean: 0.00928693 max: 0.122702
smoothSolver:  Solving for Ux, Initial residual = 0.00336057, Final residual = 7.00204e-06, No Iterations 2
smoothSolver:  Solving for Uy, Initial residual = 0.00317729, Final residual = 5.22277e-06, No Iterations 2
DICPCG:  Solving for p, Initial residual = 0.0408033, Final residual = 0.00199432, No Iterations 59
time step continuity errors : sum local = 2.22499e-09, global = 3.63523e-10, cumulative = -1.30789e-08
DICPCG:  Solving for p, Initial residual = 0.00933956, Final residual = 9.21923e-07, No Iterations 198
time step continuity errors : sum local = 1.00284e-12, global = 5.0617e-15, cumulative = -1.30789e-08
ExecutionTime = 1.49 s  ClockTime = 2 s

Time = 0.014

Courant Number mean: 0.00928677 max: 0.121759
smoothSolver:  Solving for Ux, Initial residual = 0.00315983, Final residual = 6.70233e-06, No Iterations 2
smoothSolver:  Solving for Uy, Initial residual = 0.00296936, Final residual = 4.95842e-06, No Iterations 2
DICPCG:  Solving for p, Initial residual = 0.036651, Final residual = 0.0016165, No Iterations 60
time step continuity errors : sum local = 1.68037e-09, global = 3.03746e-10, cumulative = -1.27752e-08
DICPCG:  Solving for p, Initial residual = 0.0082924, Final residual = 9.63091e-07, No Iterations 197
time step continuity errors : sum local = 9.78959e-13, global = 5.05972e-15, cumulative = -1.27752e-08
ExecutionTime = 1.59 s  ClockTime = 2 s

Time = 0.015

Courant Number mean: 0.0092866 max: 0.120793
smoothSolver:  Solving for Ux, Initial residual = 0.00298636, Final residual = 6.42731e-06, No Iterations 2
smoothSolver:  Solving for Uy, Initial residual = 0.0027934, Final residual = 4.72084e-06, No Iterations 2
DICPCG:  Solving for p, Initial residual = 0.0331828, Final residual = 0.00163196, No Iterations 59
time step continuity errors : sum local = 1.59308e-09, global = 2.57255e-10, cumulative = -1.25179e-08
DICPCG:  Solving for p, Initial residual = 0.00768214, Final residual = 9.07779e-07, No Iterations 197
time step continuity errors : sum local = 8.68721e-13, global = 3.81971e-15, cumulative = -1.25179e-08
ExecutionTime = 1.68 s  ClockTime = 2 s

Time = 0.016

Courant Number mean: 0.00928646 max: 0.1203
smoothSolver:  Solving for Ux, Initial residual = 0.00283012, Final residual = 6.16433e-06, No Iterations 2
smoothSolver:  Solving for Uy, Initial residual = 0.00264173, Final residual = 4.50944e-06, No Iterations 2
DICPCG:  Solving for p, Initial residual = 0.0301749, Final residual = 0.00137014, No Iterations 60
time step continuity errors : sum local = 1.26477e-09, global = 2.17563e-10, cumulative = -1.23004e-08
DICPCG:  Solving for p, Initial residual = 0.006939, Final residual = 8.50018e-07, No Iterations 197
time step continuity errors : sum local = 7.71034e-13, global = 3.95039e-15, cumulative = -1.23004e-08
ExecutionTime = 1.78 s  ClockTime = 2 s

Time = 0.017

Courant Number mean: 0.00928628 max: 0.119835
smoothSolver:  Solving for Ux, Initial residual = 0.00264658, Final residual = 5.82213e-06, No Iterations 2
smoothSolver:  Solving for Uy, Initial residual = 0.00250854, Final residual = 4.3211e-06, No Iterations 2
DICPCG:  Solving for p, Initial residual = 0.0275428, Final residual = 0.00127731, No Iterations 60
time step continuity errors : sum local = 1.12159e-09, global = 1.86482e-10, cumulative = -1.21139e-08
DICPCG:  Solving for p, Initial residual = 0.00640161, Final residual = 9.78528e-07, No Iterations 196
time step continuity errors : sum local = 8.45794e-13, global = 2.76255e-15, cumulative = -1.21139e-08
ExecutionTime = 1.87 s  ClockTime = 3 s

Time = 0.018

Courant Number mean: 0.00928604 max: 0.119341
smoothSolver:  Solving for Ux, Initial residual = 0.00247834, Final residual = 5.49988e-06, No Iterations 2
smoothSolver:  Solving for Uy, Initial residual = 0.00239094, Final residual = 4.14943e-06, No Iterations 2
DICPCG:  Solving for p, Initial residual = 0.0251987, Final residual = 0.00119105, No Iterations 60
time step continuity errors : sum local = 9.99732e-10, global = 1.60851e-10, cumulative = -1.1953e-08
DICPCG:  Solving for p, Initial residual = 0.00593045, Final residual = 9.31448e-07, No Iterations 196
time step continuity errors : sum local = 7.7076e-13, global = 2.55419e-15, cumulative = -1.1953e-08
ExecutionTime = 1.96 s  ClockTime = 3 s

Time = 0.019

Courant Number mean: 0.00928576 max: 0.118824
smoothSolver:  Solving for Ux, Initial residual = 0.00232874, Final residual = 5.20559e-06, No Iterations 2
smoothSolver:  Solving for Uy, Initial residual = 0.00228702, Final residual = 3.99144e-06, No Iterations 2
DICPCG:  Solving for p, Initial residual = 0.0231505, Final residual = 0.00111978, No Iterations 60
time step continuity errors : sum local = 9.02408e-10, global = 1.39935e-10, cumulative = -1.18131e-08
DICPCG:  Solving for p, Initial residual = 0.00550959, Final residual = 8.94244e-07, No Iterations 196
time step continuity errors : sum local = 7.11482e-13, global = 2.2651e-15, cumulative = -1.18131e-08
ExecutionTime = 2.06 s  ClockTime = 3 s

Time = 0.02

Courant Number mean: 0.00928545 max: 0.118289
smoothSolver:  Solving for Ux, Initial residual = 0.00219623, Final residual = 4.93597e-06, No Iterations 2
smoothSolver:  Solving for Uy, Initial residual = 0.00219486, Final residual = 3.84526e-06, No Iterations 2
DICPCG:  Solving for p, Initial residual = 0.0212053, Final residual = 0.00105669, No Iterations 60
time step continuity errors : sum local = 8.20847e-10, global = 1.22381e-10, cumulative = -1.16907e-08
DICPCG:  Solving for p, Initial residual = 0.00514289, Final residual = 9.73093e-07, No Iterations 195
time step continuity errors : sum local = 7.47185e-13, global = 8.13113e-16, cumulative = -1.16907e-08
ExecutionTime = 2.16 s  ClockTime = 3 s

Time = 0.021

Courant Number mean: 0.00928512 max: 0.117739
smoothSolver:  Solving for Ux, Initial residual = 0.00207822, Final residual = 4.6889e-06, No Iterations 2
smoothSolver:  Solving for Uy, Initial residual = 0.0021121, Final residual = 3.71013e-06, No Iterations 2
DICPCG:  Solving for p, Initial residual = 0.0196095, Final residual = 0.000891534, No Iterations 61
time step continuity errors : sum local = 6.69811e-10, global = 1.06195e-10, cumulative = -1.15845e-08
DICPCG:  Solving for p, Initial residual = 0.00474915, Final residual = 9.49504e-07, No Iterations 195
time step continuity errors : sum local = 7.05874e-13, global = 9.24033e-16, cumulative = -1.15845e-08
ExecutionTime = 2.25 s  ClockTime = 3 s

Time = 0.022

Courant Number mean: 0.00928478 max: 0.117179
smoothSolver:  Solving for Ux, Initial residual = 0.00197272, Final residual = 4.46226e-06, No Iterations 2
smoothSolver:  Solving for Uy, Initial residual = 0.00203749, Final residual = 3.5855e-06, No Iterations 2
DICPCG:  Solving for p, Initial residual = 0.018133, Final residual = 0.000837583, No Iterations 61
time step continuity errors : sum local = 6.10465e-10, global = 9.42814e-11, cumulative = -1.14902e-08
DICPCG:  Solving for p, Initial residual = 0.0044692, Final residual = 9.10187e-07, No Iterations 195
time step continuity errors : sum local = 6.57075e-13, global = 9.82069e-16, cumulative = -1.14902e-08
ExecutionTime = 2.35 s  ClockTime = 3 s

Time = 0.023

Courant Number mean: 0.00928442 max: 0.116611
smoothSolver:  Solving for Ux, Initial residual = 0.0018779, Final residual = 4.25491e-06, No Iterations 2
smoothSolver:  Solving for Uy, Initial residual = 0.00196965, Final residual = 3.46907e-06, No Iterations 2
DICPCG:  Solving for p, Initial residual = 0.0168345, Final residual = 0.000803112, No Iterations 61
time step continuity errors : sum local = 5.69409e-10, global = 8.41833e-11, cumulative = -1.1406e-08
DICPCG:  Solving for p, Initial residual = 0.00421769, Final residual = 8.81694e-07, No Iterations 195
time step continuity errors : sum local = 6.19735e-13, global = 6.78686e-16, cumulative = -1.1406e-08
ExecutionTime = 2.44 s  ClockTime = 3 s

Time = 0.024

Courant Number mean: 0.00928405 max: 0.116039
smoothSolver:  Solving for Ux, Initial residual = 0.00179291, Final residual = 4.06473e-06, No Iterations 2
smoothSolver:  Solving for Uy, Initial residual = 0.00190757, Final residual = 3.36066e-06, No Iterations 2
DICPCG:  Solving for p, Initial residual = 0.0156787, Final residual = 0.000757019, No Iterations 61
time step continuity errors : sum local = 5.23377e-10, global = 7.57239e-11, cumulative = -1.13303e-08
DICPCG:  Solving for p, Initial residual = 0.00398763, Final residual = 9.78539e-07, No Iterations 194
time step continuity errors : sum local = 6.71185e-13, global = 1.67078e-15, cumulative = -1.13303e-08
ExecutionTime = 2.53 s  ClockTime = 3 s

Time = 0.025

Courant Number mean: 0.00928367 max: 0.115464
smoothSolver:  Solving for Ux, Initial residual = 0.00171604, Final residual = 3.88932e-06, No Iterations 2
smoothSolver:  Solving for Uy, Initial residual = 0.00185058, Final residual = 3.25978e-06, No Iterations 2
DICPCG:  Solving for p, Initial residual = 0.0146925, Final residual = 0.000729061, No Iterations 61
time step continuity errors : sum local = 4.92523e-10, global = 6.85394e-11, cumulative = -1.12618e-08
DICPCG:  Solving for p, Initial residual = 0.00379987, Final residual = 9.48427e-07, No Iterations 194
time step continuity errors : sum local = 6.36061e-13, global = 1.54409e-15, cumulative = -1.12618e-08
ExecutionTime = 2.62 s  ClockTime = 3 s

Time = 0.026

Courant Number mean: 0.00928329 max: 0.114897
smoothSolver:  Solving for Ux, Initial residual = 0.00164592, Final residual = 3.72719e-06, No Iterations 2
smoothSolver:  Solving for Uy, Initial residual = 0.00179835, Final residual = 3.1652e-06, No Iterations 2
DICPCG:  Solving for p, Initial residual = 0.0137922, Final residual = 0.000659754, No Iterations 63
time step continuity errors : sum local = 4.36345e-10, global = 6.65702e-11, cumulative = -1.11952e-08
DICPCG:  Solving for p, Initial residual = 0.00358209, Final residual = 9.34066e-07, No Iterations 194
time step continuity errors : sum local = 6.13688e-13, global = 1.55749e-15, cumulative = -1.11952e-08
ExecutionTime = 2.72 s  ClockTime = 3 s

Time = 0.027

Courant Number mean: 0.00928291 max: 0.114571
smoothSolver:  Solving for Ux, Initial residual = 0.0015819, Final residual = 3.57633e-06, No Iterations 2
smoothSolver:  Solving for Uy, Initial residual = 0.00175024, Final residual = 3.07584e-06, No Iterations 2
DICPCG:  Solving for p, Initial residual = 0.0129846, Final residual = 0.000629175, No Iterations 63
time step continuity errors : sum local = 4.08158e-10, global = 6.12342e-11, cumulative = -1.1134e-08
DICPCG:  Solving for p, Initial residual = 0.00342975, Final residual = 9.07978e-07, No Iterations 194
time step continuity errors : sum local = 5.85515e-13, global = 1.37543e-15, cumulative = -1.1134e-08
ExecutionTime = 2.81 s  ClockTime = 4 s

Time = 0.028

Courant Number mean: 0.00928252 max: 0.114237
smoothSolver:  Solving for Ux, Initial residual = 0.001523, Final residual = 3.43559e-06, No Iterations 2
smoothSolver:  Solving for Uy, Initial residual = 0.00170554, Final residual = 2.99107e-06, No Iterations 2
DICPCG:  Solving for p, Initial residual = 0.0123121, Final residual = 0.000598305, No Iterations 63
time step continuity errors : sum local = 3.81266e-10, global = 5.64453e-11, cumulative = -1.10775e-08
DICPCG:  Solving for p, Initial residual = 0.00328192, Final residual = 8.8162e-07, No Iterations 194
time step continuity errors : sum local = 5.58683e-13, global = 1.23858e-15, cumulative = -1.10775e-08
ExecutionTime = 2.9 s  ClockTime = 4 s

Time = 0.029

Courant Number mean: 0.00928214 max: 0.113894
smoothSolver:  Solving for Ux, Initial residual = 0.00146874, Final residual = 3.30434e-06, No Iterations 2
smoothSolver:  Solving for Uy, Initial residual = 0.00166389, Final residual = 2.91137e-06, No Iterations 2
DICPCG:  Solving for p, Initial residual = 0.0116177, Final residual = 0.000574981, No Iterations 63
time step continuity errors : sum local = 3.60354e-10, global = 5.23433e-11, cumulative = -1.10252e-08
DICPCG:  Solving for p, Initial residual = 0.00314839, Final residual = 8.55926e-07, No Iterations 194
time step continuity errors : sum local = 5.33672e-13, global = 1.11695e-15, cumulative = -1.10252e-08
ExecutionTime = 3 s  ClockTime = 4 s

Time = 0.03

Courant Number mean: 0.00928176 max: 0.113546
smoothSolver:  Solving for Ux, Initial residual = 0.00141837, Final residual = 3.18206e-06, No Iterations 2
smoothSolver:  Solving for Uy, Initial residual = 0.00162494, Final residual = 2.83576e-06, No Iterations 2
DICPCG:  Solving for p, Initial residual = 0.0110337, Final residual = 0.00055023, No Iterations 63
time step continuity errors : sum local = 3.3953e-10, global = 4.87661e-11, cumulative = -1.09764e-08
DICPCG:  Solving for p, Initial residual = 0.00302751, Final residual = 9.63775e-07, No Iterations 193
time step continuity errors : sum local = 5.91868e-13, global = 1.66042e-15, cumulative = -1.09764e-08
ExecutionTime = 3.09 s  ClockTime = 4 s

Time = 0.031

Courant Number mean: 0.00928138 max: 0.113193
smoothSolver:  Solving for Ux, Initial residual = 0.00137142, Final residual = 3.06797e-06, No Iterations 2
smoothSolver:  Solving for Uy, Initial residual = 0.00158844, Final residual = 2.76441e-06, No Iterations 2
DICPCG:  Solving for p, Initial residual = 0.0104368, Final residual = 0.000488662, No Iterations 64
time step continuity errors : sum local = 2.97212e-10, global = 4.72023e-11, cumulative = -1.09292e-08
DICPCG:  Solving for p, Initial residual = 0.00288889, Final residual = 8.15771e-07, No Iterations 194
time step continuity errors : sum local = 4.93994e-13, global = 8.17607e-16, cumulative = -1.09292e-08
ExecutionTime = 3.18 s  ClockTime = 4 s

Time = 0.032

Courant Number mean: 0.009281 max: 0.112836
smoothSolver:  Solving for Ux, Initial residual = 0.00132755, Final residual = 2.96076e-06, No Iterations 2
smoothSolver:  Solving for Uy, Initial residual = 0.00155419, Final residual = 2.69673e-06, No Iterations 2
DICPCG:  Solving for p, Initial residual = 0.0099965, Final residual = 0.000469835, No Iterations 64
time step continuity errors : sum local = 2.81947e-10, global = 4.44124e-11, cumulative = -1.08848e-08
DICPCG:  Solving for p, Initial residual = 0.00279376, Final residual = 9.16349e-07, No Iterations 193
time step continuity errors : sum local = 5.47673e-13, global = 1.451e-15, cumulative = -1.08848e-08
ExecutionTime = 3.27 s  ClockTime = 4 s

Time = 0.033

Courant Number mean: 0.00928063 max: 0.11248
smoothSolver:  Solving for Ux, Initial residual = 0.00128651, Final residual = 2.86007e-06, No Iterations 2
smoothSolver:  Solving for Uy, Initial residual = 0.00152195, Final residual = 2.63221e-06, No Iterations 2
DICPCG:  Solving for p, Initial residual = 0.009611, Final residual = 0.000453266, No Iterations 64
time step continuity errors : sum local = 2.68574e-10, global = 4.19639e-11, cumulative = -1.08428e-08
DICPCG:  Solving for p, Initial residual = 0.00270622, Final residual = 9.53281e-07, No Iterations 193
time step continuity errors : sum local = 5.62661e-13, global = 1.47256e-15, cumulative = -1.08428e-08
ExecutionTime = 3.37 s  ClockTime = 4 s

Time = 0.034

Courant Number mean: 0.00928026 max: 0.112121
smoothSolver:  Solving for Ux, Initial residual = 0.00124807, Final residual = 2.76564e-06, No Iterations 2
smoothSolver:  Solving for Uy, Initial residual = 0.00149169, Final residual = 2.57094e-06, No Iterations 2
DICPCG:  Solving for p, Initial residual = 0.00911835, Final residual = 0.000437757, No Iterations 64
time step continuity errors : sum local = 2.56276e-10, global = 3.97831e-11, cumulative = -1.0803e-08
DICPCG:  Solving for p, Initial residual = 0.00261123, Final residual = 9.23648e-07, No Iterations 193
time step continuity errors : sum local = 5.38771e-13, global = 1.33872e-15, cumulative = -1.0803e-08
ExecutionTime = 3.46 s  ClockTime = 4 s

Time = 0.035

Courant Number mean: 0.0092799 max: 0.111761
smoothSolver:  Solving for Ux, Initial residual = 0.00121205, Final residual = 2.67656e-06, No Iterations 2
smoothSolver:  Solving for Uy, Initial residual = 0.00146316, Final residual = 2.51273e-06, No Iterations 2
DICPCG:  Solving for p, Initial residual = 0.00873385, Final residual = 0.000419285, No Iterations 64
time step continuity errors : sum local = 2.4268e-10, global = 3.78583e-11, cumulative = -1.07652e-08
DICPCG:  Solving for p, Initial residual = 0.00252803, Final residual = 8.85939e-07, No Iterations 193
time step continuity errors : sum local = 5.11019e-13, global = 1.08482e-15, cumulative = -1.07652e-08
ExecutionTime = 3.56 s  ClockTime = 4 s

Time = 0.036

Courant Number mean: 0.00927954 max: 0.1114
smoothSolver:  Solving for Ux, Initial residual = 0.00117821, Final residual = 2.59226e-06, No Iterations 2
smoothSolver:  Solving for Uy, Initial residual = 0.00143618, Final residual = 2.45722e-06, No Iterations 2
DICPCG:  Solving for p, Initial residual = 0.00840535, Final residual = 0.000405929, No Iterations 64
time step continuity errors : sum local = 2.3243e-10, global = 3.61448e-11, cumulative = -1.0729e-08
DICPCG:  Solving for p, Initial residual = 0.00245295, Final residual = 8.70425e-07, No Iterations 193
time step continuity errors : sum local = 4.96801e-13, global = 9.67838e-16, cumulative = -1.0729e-08
ExecutionTime = 3.65 s  ClockTime = 4 s

Time = 0.037

Courant Number mean: 0.00927918 max: 0.111038
smoothSolver:  Solving for Ux, Initial residual = 0.0011463, Final residual = 2.51253e-06, No Iterations 2
smoothSolver:  Solving for Uy, Initial residual = 0.0014106, Final residual = 2.40427e-06, No Iterations 2
DICPCG:  Solving for p, Initial residual = 0.00810608, Final residual = 0.000383057, No Iterations 64
time step continuity errors : sum local = 2.17095e-10, global = 3.47482e-11, cumulative = -1.06943e-08
DICPCG:  Solving for p, Initial residual = 0.00238146, Final residual = 8.72729e-07, No Iterations 193
time step continuity errors : sum local = 4.93105e-13, global = 7.59203e-16, cumulative = -1.06943e-08
ExecutionTime = 3.74 s  ClockTime = 5 s

Time = 0.038

Courant Number mean: 0.00927883 max: 0.110677
smoothSolver:  Solving for Ux, Initial residual = 0.00111609, Final residual = 2.43719e-06, No Iterations 2
smoothSolver:  Solving for Uy, Initial residual = 0.00138629, Final residual = 2.35373e-06, No Iterations 2
DICPCG:  Solving for p, Initial residual = 0.00781256, Final residual = 0.000374966, No Iterations 64
time step continuity errors : sum local = 2.10422e-10, global = 3.32733e-11, cumulative = -1.0661e-08
DICPCG:  Solving for p, Initial residual = 0.00231611, Final residual = 9.75287e-07, No Iterations 192
time step continuity errors : sum local = 5.45694e-13, global = 7.13259e-16, cumulative = -1.0661e-08
ExecutionTime = 3.84 s  ClockTime = 5 s

Time = 0.039

Courant Number mean: 0.00927848 max: 0.110316
smoothSolver:  Solving for Ux, Initial residual = 0.00108745, Final residual = 2.36608e-06, No Iterations 2
smoothSolver:  Solving for Uy, Initial residual = 0.00136312, Final residual = 2.30515e-06, No Iterations 2
DICPCG:  Solving for p, Initial residual = 0.00748369, Final residual = 0.000361462, No Iterations 64
time step continuity errors : sum local = 2.00936e-10, global = 3.19879e-11, cumulative = -1.0629e-08
DICPCG:  Solving for p, Initial residual = 0.00225147, Final residual = 9.84479e-07, No Iterations 192
time step continuity errors : sum local = 5.4577e-13, global = 6.45421e-16, cumulative = -1.0629e-08
ExecutionTime = 3.93 s  ClockTime = 5 s

Time = 0.04

Courant Number mean: 0.00927814 max: 0.109957
smoothSolver:  Solving for Ux, Initial residual = 0.00106024, Final residual = 2.29851e-06, No Iterations 2
smoothSolver:  Solving for Uy, Initial residual = 0.00134098, Final residual = 2.25851e-06, No Iterations 2
DICPCG:  Solving for p, Initial residual = 0.00721493, Final residual = 0.000355709, No Iterations 64
time step continuity errors : sum local = 1.9597e-10, global = 3.07804e-11, cumulative = -1.05982e-08
DICPCG:  Solving for p, Initial residual = 0.00219485, Final residual = 9.56611e-07, No Iterations 192
time step continuity errors : sum local = 5.2565e-13, global = 5.11819e-16, cumulative = -1.05982e-08
ExecutionTime = 4.02 s  ClockTime = 5 s

Time = 0.041

Courant Number mean: 0.0092778 max: 0.109599
smoothSolver:  Solving for Ux, Initial residual = 0.00103435, Final residual = 2.23421e-06, No Iterations 2
smoothSolver:  Solving for Uy, Initial residual = 0.0013198, Final residual = 2.21368e-06, No Iterations 2
DICPCG:  Solving for p, Initial residual = 0.00695074, Final residual = 0.000337488, No Iterations 64
time step continuity errors : sum local = 1.84347e-10, global = 2.98793e-11, cumulative = -1.05684e-08
DICPCG:  Solving for p, Initial residual = 0.00213457, Final residual = 9.00841e-07, No Iterations 192
time step continuity errors : sum local = 4.90881e-13, global = 4.2038e-16, cumulative = -1.05684e-08
ExecutionTime = 4.12 s  ClockTime = 5 s

Time = 0.042

Courant Number mean: 0.00927747 max: 0.109321
smoothSolver:  Solving for Ux, Initial residual = 0.00100968, Final residual = 2.17295e-06, No Iterations 2
smoothSolver:  Solving for Uy, Initial residual = 0.00129952, Final residual = 2.17044e-06, No Iterations 2
DICPCG:  Solving for p, Initial residual = 0.00677959, Final residual = 0.000334097, No Iterations 64
time step continuity errors : sum local = 1.81016e-10, global = 2.87995e-11, cumulative = -1.05396e-08
DICPCG:  Solving for p, Initial residual = 0.00208741, Final residual = 8.81821e-07, No Iterations 192
time step continuity errors : sum local = 4.7669e-13, global = 4.00637e-16, cumulative = -1.05396e-08
ExecutionTime = 4.21 s  ClockTime = 5 s

Time = 0.043

Courant Number mean: 0.00927714 max: 0.109086
smoothSolver:  Solving for Ux, Initial residual = 0.000986177, Final residual = 2.11461e-06, No Iterations 2
smoothSolver:  Solving for Uy, Initial residual = 0.00128015, Final residual = 2.12871e-06, No Iterations 2
DICPCG:  Solving for p, Initial residual = 0.00661138, Final residual = 0.000324438, No Iterations 64
time step continuity errors : sum local = 1.74404e-10, global = 2.78684e-11, cumulative = -1.05117e-08
DICPCG:  Solving for p, Initial residual = 0.00204626, Final residual = 8.84395e-07, No Iterations 192
time step continuity errors : sum local = 4.74345e-13, global = 2.82953e-16, cumulative = -1.05117e-08
ExecutionTime = 4.31 s  ClockTime = 5 s

Time = 0.044

Courant Number mean: 0.00927682 max: 0.108849
smoothSolver:  Solving for Ux, Initial residual = 0.00096381, Final residual = 2.05917e-06, No Iterations 2
smoothSolver:  Solving for Uy, Initial residual = 0.00126156, Final residual = 2.08847e-06, No Iterations 2
DICPCG:  Solving for p, Initial residual = 0.00638292, Final residual = 0.000315376, No Iterations 64
time step continuity errors : sum local = 1.68248e-10, global = 2.70732e-11, cumulative = -1.04846e-08
DICPCG:  Solving for p, Initial residual = 0.00199672, Final residual = 9.97137e-07, No Iterations 191
time step continuity errors : sum local = 5.30851e-13, global = 4.61425e-17, cumulative = -1.04846e-08
ExecutionTime = 4.41 s  ClockTime = 5 s

Time = 0.045

Courant Number mean: 0.0092765 max: 0.108611
smoothSolver:  Solving for Ux, Initial residual = 0.00094256, Final residual = 2.00624e-06, No Iterations 2
smoothSolver:  Solving for Uy, Initial residual = 0.00124364, Final residual = 2.04981e-06, No Iterations 2
DICPCG:  Solving for p, Initial residual = 0.00621431, Final residual = 0.000304466, No Iterations 64
time step continuity errors : sum local = 1.61242e-10, global = 2.62817e-11, cumulative = -1.04583e-08
DICPCG:  Solving for p, Initial residual = 0.00195007, Final residual = 9.78985e-07, No Iterations 191
time step continuity errors : sum local = 5.1739e-13, global = -5.46397e-17, cumulative = -1.04583e-08
ExecutionTime = 4.5 s  ClockTime = 5 s

Time = 0.046

Courant Number mean: 0.00927619 max: 0.108371
smoothSolver:  Solving for Ux, Initial residual = 0.000922248, Final residual = 1.95566e-06, No Iterations 2
smoothSolver:  Solving for Uy, Initial residual = 0.00122638, Final residual = 2.01277e-06, No Iterations 2
DICPCG:  Solving for p, Initial residual = 0.00603779, Final residual = 0.000299476, No Iterations 64
time step continuity errors : sum local = 1.57485e-10, global = 2.55314e-11, cumulative = -1.04328e-08
DICPCG:  Solving for p, Initial residual = 0.00191093, Final residual = 8.52213e-07, No Iterations 192
time step continuity errors : sum local = 4.47304e-13, global = 1.71415e-16, cumulative = -1.04328e-08
ExecutionTime = 4.59 s  ClockTime = 5 s

Time = 0.047

Courant Number mean: 0.00927588 max: 0.108131
smoothSolver:  Solving for Ux, Initial residual = 0.000902777, Final residual = 1.90732e-06, No Iterations 2
smoothSolver:  Solving for Uy, Initial residual = 0.00120973, Final residual = 1.97737e-06, No Iterations 2
DICPCG:  Solving for p, Initial residual = 0.00589925, Final residual = 0.000292904, No Iterations 64
time step continuity errors : sum local = 1.52992e-10, global = 2.48428e-11, cumulative = -1.0408e-08
DICPCG:  Solving for p, Initial residual = 0.00187076, Final residual = 9.95264e-07, No Iterations 191
time step continuity errors : sum local = 5.18899e-13, global = -2.9737e-16, cumulative = -1.0408e-08
ExecutionTime = 4.68 s  ClockTime = 6 s

Time = 0.048

Courant Number mean: 0.00927557 max: 0.107889
smoothSolver:  Solving for Ux, Initial residual = 0.000884097, Final residual = 1.8612e-06, No Iterations 2
smoothSolver:  Solving for Uy, Initial residual = 0.00119365, Final residual = 1.94336e-06, No Iterations 2
DICPCG:  Solving for p, Initial residual = 0.00577698, Final residual = 0.00028654, No Iterations 64
time step continuity errors : sum local = 1.48684e-10, global = 2.41993e-11, cumulative = -1.03838e-08
DICPCG:  Solving for p, Initial residual = 0.00183292, Final residual = 9.74746e-07, No Iterations 191
time step continuity errors : sum local = 5.04887e-13, global = -2.99358e-16, cumulative = -1.03838e-08
ExecutionTime = 4.78 s  ClockTime = 6 s

Time = 0.049

Courant Number mean: 0.00927527 max: 0.107648
smoothSolver:  Solving for Ux, Initial residual = 0.000866166, Final residual = 1.81705e-06, No Iterations 2
smoothSolver:  Solving for Uy, Initial residual = 0.00117812, Final residual = 1.91047e-06, No Iterations 2
DICPCG:  Solving for p, Initial residual = 0.00560458, Final residual = 0.000280219, No Iterations 64
time step continuity errors : sum local = 1.4448e-10, global = 2.35497e-11, cumulative = -1.03602e-08
DICPCG:  Solving for p, Initial residual = 0.00180108, Final residual = 9.66601e-07, No Iterations 191
time step continuity errors : sum local = 4.9754e-13, global = -4.51231e-16, cumulative = -1.03602e-08
ExecutionTime = 4.88 s  ClockTime = 6 s

Time = 0.05

Courant Number mean: 0.00927498 max: 0.107406
smoothSolver:  Solving for Ux, Initial residual = 0.000848937, Final residual = 1.77466e-06, No Iterations 2
smoothSolver:  Solving for Uy, Initial residual = 0.00116309, Final residual = 1.87868e-06, No Iterations 2
DICPCG:  Solving for p, Initial residual = 0.00540322, Final residual = 0.00025723, No Iterations 65
time step continuity errors : sum local = 1.31819e-10, global = 2.37483e-11, cumulative = -1.03365e-08
DICPCG:  Solving for p, Initial residual = 0.00173953, Final residual = 9.68962e-07, No Iterations 191
time step continuity errors : sum local = 4.95768e-13, global = -4.16718e-16, cumulative = -1.03365e-08
ExecutionTime = 4.97 s  ClockTime = 6 s

Time = 0.051

Courant Number mean: 0.00927469 max: 0.107163
smoothSolver:  Solving for Ux, Initial residual = 0.000832363, Final residual = 1.73391e-06, No Iterations 2
smoothSolver:  Solving for Uy, Initial residual = 0.00114855, Final residual = 1.848e-06, No Iterations 2
DICPCG:  Solving for p, Initial residual = 0.00527468, Final residual = 0.000247165, No Iterations 65
time step continuity errors : sum local = 1.25924e-10, global = 2.33035e-11, cumulative = -1.03132e-08
DICPCG:  Solving for p, Initial residual = 0.00170124, Final residual = 9.01249e-07, No Iterations 191
time step continuity errors : sum local = 4.58487e-13, global = -3.979e-16, cumulative = -1.03132e-08
ExecutionTime = 5.07 s  ClockTime = 6 s

Time = 0.052

Courant Number mean: 0.0092744 max: 0.106921
smoothSolver:  Solving for Ux, Initial residual = 0.000816422, Final residual = 1.69477e-06, No Iterations 2
smoothSolver:  Solving for Uy, Initial residual = 0.00113448, Final residual = 1.81818e-06, No Iterations 2
DICPCG:  Solving for p, Initial residual = 0.00515227, Final residual = 0.000246059, No Iterations 65
time step continuity errors : sum local = 1.24655e-10, global = 2.26307e-11, cumulative = -1.02905e-08
DICPCG:  Solving for p, Initial residual = 0.00167499, Final residual = 9.13431e-07, No Iterations 191
time step continuity errors : sum local = 4.62091e-13, global = -4.09567e-16, cumulative = -1.02905e-08
ExecutionTime = 5.16 s  ClockTime = 6 s

Time = 0.053

Courant Number mean: 0.00927411 max: 0.106679
smoothSolver:  Solving for Ux, Initial residual = 0.000801082, Final residual = 1.65714e-06, No Iterations 2
smoothSolver:  Solving for Uy, Initial residual = 0.00112091, Final residual = 1.78921e-06, No Iterations 2
DICPCG:  Solving for p, Initial residual = 0.005016, Final residual = 0.00023852, No Iterations 65
time step continuity errors : sum local = 1.20175e-10, global = 2.21906e-11, cumulative = -1.02684e-08
DICPCG:  Solving for p, Initial residual = 0.00163895, Final residual = 9.23904e-07, No Iterations 191
time step continuity errors : sum local = 4.64857e-13, global = -3.21332e-16, cumulative = -1.02684e-08
ExecutionTime = 5.26 s  ClockTime = 6 s

Time = 0.054

Courant Number mean: 0.00927383 max: 0.106438
smoothSolver:  Solving for Ux, Initial residual = 0.000786318, Final residual = 1.62098e-06, No Iterations 2
smoothSolver:  Solving for Uy, Initial residual = 0.00110777, Final residual = 1.76109e-06, No Iterations 2
DICPCG:  Solving for p, Initial residual = 0.00487662, Final residual = 0.000232704, No Iterations 65
time step continuity errors : sum local = 1.16624e-10, global = 2.16557e-11, cumulative = -1.02467e-08
DICPCG:  Solving for p, Initial residual = 0.00160412, Final residual = 9.11884e-07, No Iterations 191
time step continuity errors : sum local = 4.56419e-13, global = -5.08904e-16, cumulative = -1.02467e-08
ExecutionTime = 5.36 s  ClockTime = 6 s

Time = 0.055

Courant Number mean: 0.00927356 max: 0.106197
smoothSolver:  Solving for Ux, Initial residual = 0.000772146, Final residual = 1.58626e-06, No Iterations 2
smoothSolver:  Solving for Uy, Initial residual = 0.00109499, Final residual = 1.73379e-06, No Iterations 2
DICPCG:  Solving for p, Initial residual = 0.00476109, Final residual = 0.000229939, No Iterations 65
time step continuity errors : sum local = 1.14655e-10, global = 2.11587e-11, cumulative = -1.02255e-08
DICPCG:  Solving for p, Initial residual = 0.00157667, Final residual = 8.99192e-07, No Iterations 191
time step continuity errors : sum local = 4.47831e-13, global = -6.26189e-16, cumulative = -1.02255e-08
ExecutionTime = 5.45 s  ClockTime = 6 s

Time = 0.056

Courant Number mean: 0.00927328 max: 0.105959
smoothSolver:  Solving for Ux, Initial residual = 0.000758512, Final residual = 1.55288e-06, No Iterations 2
smoothSolver:  Solving for Uy, Initial residual = 0.00108256, Final residual = 1.70727e-06, No Iterations 2
DICPCG:  Solving for p, Initial residual = 0.00468572, Final residual = 0.000226648, No Iterations 65
time step continuity errors : sum local = 1.12468e-10, global = 2.06701e-11, cumulative = -1.02049e-08
DICPCG:  Solving for p, Initial residual = 0.00155162, Final residual = 8.8099e-07, No Iterations 191
time step continuity errors : sum local = 4.36687e-13, global = -6.78418e-16, cumulative = -1.02049e-08
ExecutionTime = 5.54 s  ClockTime = 7 s

Time = 0.057

Courant Number mean: 0.00927301 max: 0.105723
smoothSolver:  Solving for Ux, Initial residual = 0.000745345, Final residual = 1.52072e-06, No Iterations 2
smoothSolver:  Solving for Uy, Initial residual = 0.00107046, Final residual = 1.68152e-06, No Iterations 2
DICPCG:  Solving for p, Initial residual = 0.00455056, Final residual = 0.000223197, No Iterations 65
time step continuity errors : sum local = 1.10234e-10, global = 2.02074e-11, cumulative = -1.01847e-08
DICPCG:  Solving for p, Initial residual = 0.00152181, Final residual = 9.871e-07, No Iterations 190
time step continuity errors : sum local = 4.8698e-13, global = -1.51112e-15, cumulative = -1.01847e-08
ExecutionTime = 5.63 s  ClockTime = 7 s

Time = 0.058

Courant Number mean: 0.00927275 max: 0.105488
smoothSolver:  Solving for Ux, Initial residual = 0.000732612, Final residual = 1.48975e-06, No Iterations 2
smoothSolver:  Solving for Uy, Initial residual = 0.00105869, Final residual = 1.65665e-06, No Iterations 2
DICPCG:  Solving for p, Initial residual = 0.00446438, Final residual = 0.000219245, No Iterations 65
time step continuity errors : sum local = 1.07781e-10, global = 1.97723e-11, cumulative = -1.01649e-08
DICPCG:  Solving for p, Initial residual = 0.00149463, Final residual = 9.75394e-07, No Iterations 190
time step continuity errors : sum local = 4.78987e-13, global = -1.55432e-15, cumulative = -1.01649e-08
ExecutionTime = 5.72 s  ClockTime = 7 s

Time = 0.059

Courant Number mean: 0.00927249 max: 0.105254
smoothSolver:  Solving for Ux, Initial residual = 0.000720294, Final residual = 1.45996e-06, No Iterations 2
smoothSolver:  Solving for Uy, Initial residual = 0.00104723, Final residual = 1.63253e-06, No Iterations 2
DICPCG:  Solving for p, Initial residual = 0.0043404, Final residual = 0.0002157, No Iterations 65
time step continuity errors : sum local = 1.05567e-10, global = 1.93561e-11, cumulative = -1.01455e-08
DICPCG:  Solving for p, Initial residual = 0.00146639, Final residual = 9.56424e-07, No Iterations 190
time step continuity errors : sum local = 4.67639e-13, global = -1.55417e-15, cumulative = -1.01455e-08
ExecutionTime = 5.82 s  ClockTime = 7 s

Time = 0.06

Courant Number mean: 0.00927223 max: 0.105021
smoothSolver:  Solving for Ux, Initial residual = 0.000708369, Final residual = 1.43121e-06, No Iterations 2
smoothSolver:  Solving for Uy, Initial residual = 0.00103606, Final residual = 1.60912e-06, No Iterations 2
DICPCG:  Solving for p, Initial residual = 0.0042865, Final residual = 0.000210997, No Iterations 65
time step continuity errors : sum local = 1.02826e-10, global = 1.89506e-11, cumulative = -1.01266e-08
DICPCG:  Solving for p, Initial residual = 0.00144388, Final residual = 9.12985e-07, No Iterations 190
time step continuity errors : sum local = 4.44523e-13, global = -1.49849e-15, cumulative = -1.01266e-08
ExecutionTime = 5.91 s  ClockTime = 7 s

Time = 0.061

Courant Number mean: 0.00927198 max: 0.104789
smoothSolver:  Solving for Ux, Initial residual = 0.000696821, Final residual = 1.40341e-06, No Iterations 2
smoothSolver:  Solving for Uy, Initial residual = 0.00102519, Final residual = 1.58639e-06, No Iterations 2
DICPCG:  Solving for p, Initial residual = 0.00417469, Final residual = 0.000206978, No Iterations 65
time step continuity errors : sum local = 1.00451e-10, global = 1.85646e-11, cumulative = -1.0108e-08
DICPCG:  Solving for p, Initial residual = 0.0014225, Final residual = 9.1182e-07, No Iterations 190
time step continuity errors : sum local = 4.4214e-13, global = -1.56105e-15, cumulative = -1.0108e-08
ExecutionTime = 6 s  ClockTime = 7 s

Time = 0.062

Courant Number mean: 0.00927173 max: 0.104558
smoothSolver:  Solving for Ux, Initial residual = 0.000685633, Final residual = 1.37651e-06, No Iterations 2
smoothSolver:  Solving for Uy, Initial residual = 0.00101459, Final residual = 1.56436e-06, No Iterations 2
DICPCG:  Solving for p, Initial residual = 0.00407084, Final residual = 0.000193364, No Iterations 66
time step continuity errors : sum local = 9.34657e-11, global = 1.86698e-11, cumulative = -1.00894e-08
DICPCG:  Solving for p, Initial residual = 0.00139271, Final residual = 9.16116e-07, No Iterations 190
time step continuity errors : sum local = 4.42438e-13, global = -1.30381e-15, cumulative = -1.00894e-08
ExecutionTime = 6.09 s  ClockTime = 7 s

Time = 0.063

Courant Number mean: 0.00927148 max: 0.104363
smoothSolver:  Solving for Ux, Initial residual = 0.000674784, Final residual = 1.35048e-06, No Iterations 2
smoothSolver:  Solving for Uy, Initial residual = 0.00100428, Final residual = 1.54293e-06, No Iterations 2
DICPCG:  Solving for p, Initial residual = 0.00395581, Final residual = 0.000191013, No Iterations 66
time step continuity errors : sum local = 9.19681e-11, global = 1.82993e-11, cumulative = -1.00711e-08
DICPCG:  Solving for p, Initial residual = 0.00136971, Final residual = 9.36084e-07, No Iterations 190
time step continuity errors : sum local = 4.50346e-13, global = -1.46321e-15, cumulative = -1.00711e-08
ExecutionTime = 6.18 s  ClockTime = 7 s

Time = 0.064

Courant Number mean: 0.00927124 max: 0.104197
smoothSolver:  Solving for Ux, Initial residual = 0.000664275, Final residual = 1.32529e-06, No Iterations 2
smoothSolver:  Solving for Uy, Initial residual = 0.000994269, Final residual = 1.52203e-06, No Iterations 2
DICPCG:  Solving for p, Initial residual = 0.00389945, Final residual = 0.000186997, No Iterations 66
time step continuity errors : sum local = 8.96969e-11, global = 1.79121e-11, cumulative = -1.00531e-08
DICPCG:  Solving for p, Initial residual = 0.0013464, Final residual = 8.81369e-07, No Iterations 190
time step continuity errors : sum local = 4.22454e-13, global = -1.36321e-15, cumulative = -1.00531e-08
ExecutionTime = 6.28 s  ClockTime = 7 s

Time = 0.065

Courant Number mean: 0.00927099 max: 0.10403
smoothSolver:  Solving for Ux, Initial residual = 0.000654093, Final residual = 1.3009e-06, No Iterations 2
smoothSolver:  Solving for Uy, Initial residual = 0.000984532, Final residual = 1.50166e-06, No Iterations 2
DICPCG:  Solving for p, Initial residual = 0.00384882, Final residual = 0.000185539, No Iterations 66
time step continuity errors : sum local = 8.86739e-11, global = 1.75683e-11, cumulative = -1.00356e-08
DICPCG:  Solving for p, Initial residual = 0.00133001, Final residual = 8.73635e-07, No Iterations 190
time step continuity errors : sum local = 4.17238e-13, global = -1.46724e-15, cumulative = -1.00356e-08
ExecutionTime = 6.37 s  ClockTime = 7 s

Time = 0.066

Courant Number mean: 0.00927076 max: 0.103864
smoothSolver:  Solving for Ux, Initial residual = 0.000644239, Final residual = 1.2773e-06, No Iterations 2
smoothSolver:  Solving for Uy, Initial residual = 0.00097502, Final residual = 1.48178e-06, No Iterations 2
DICPCG:  Solving for p, Initial residual = 0.00376111, Final residual = 0.000184266, No Iterations 66
time step continuity errors : sum local = 8.77507e-11, global = 1.7224e-11, cumulative = -1.00184e-08
DICPCG:  Solving for p, Initial residual = 0.001309, Final residual = 9.95621e-07, No Iterations 189
time step continuity errors : sum local = 4.73792e-13, global = -2.13441e-15, cumulative = -1.00184e-08
ExecutionTime = 6.46 s  ClockTime = 8 s

Time = 0.067

Courant Number mean: 0.00927052 max: 0.103698
smoothSolver:  Solving for Ux, Initial residual = 0.000634687, Final residual = 1.25445e-06, No Iterations 2
smoothSolver:  Solving for Uy, Initial residual = 0.000965733, Final residual = 1.46242e-06, No Iterations 2
DICPCG:  Solving for p, Initial residual = 0.00373361, Final residual = 0.000182346, No Iterations 66
time step continuity errors : sum local = 8.65258e-11, global = 1.68918e-11, cumulative = -1.00015e-08
DICPCG:  Solving for p, Initial residual = 0.0012906, Final residual = 8.92694e-07, No Iterations 190
time step continuity errors : sum local = 4.23284e-13, global = -1.50418e-15, cumulative = -1.00015e-08
ExecutionTime = 6.56 s  ClockTime = 8 s

Time = 0.068

Courant Number mean: 0.00927029 max: 0.103531
smoothSolver:  Solving for Ux, Initial residual = 0.000625415, Final residual = 1.23235e-06, No Iterations 2
smoothSolver:  Solving for Uy, Initial residual = 0.000956658, Final residual = 1.44356e-06, No Iterations 2
DICPCG:  Solving for p, Initial residual = 0.00363184, Final residual = 0.000175602, No Iterations 66
time step continuity errors : sum local = 8.30348e-11, global = 1.65642e-11, cumulative = -9.98491e-09
DICPCG:  Solving for p, Initial residual = 0.00126909, Final residual = 9.70125e-07, No Iterations 189
time step continuity errors : sum local = 4.58424e-13, global = -1.99208e-15, cumulative = -9.98491e-09
ExecutionTime = 6.65 s  ClockTime = 8 s

Time = 0.069

Courant Number mean: 0.00927006 max: 0.103365
smoothSolver:  Solving for Ux, Initial residual = 0.000616424, Final residual = 1.21098e-06, No Iterations 2
smoothSolver:  Solving for Uy, Initial residual = 0.000947784, Final residual = 1.4252e-06, No Iterations 2
DICPCG:  Solving for p, Initial residual = 0.00354815, Final residual = 0.000174795, No Iterations 66
time step continuity errors : sum local = 8.23748e-11, global = 1.62371e-11, cumulative = -9.96867e-09
DICPCG:  Solving for p, Initial residual = 0.00125085, Final residual = 9.59529e-07, No Iterations 189
time step continuity errors : sum local = 4.519e-13, global = -2.10701e-15, cumulative = -9.96867e-09
ExecutionTime = 6.74 s  ClockTime = 8 s

Time = 0.07

Courant Number mean: 0.00926983 max: 0.103199
smoothSolver:  Solving for Ux, Initial residual = 0.000607684, Final residual = 1.19027e-06, No Iterations 2
smoothSolver:  Solving for Uy, Initial residual = 0.000939107, Final residual = 1.40731e-06, No Iterations 2
DICPCG:  Solving for p, Initial residual = 0.0034838, Final residual = 0.000171057, No Iterations 66
time step continuity errors : sum local = 8.03487e-11, global = 1.59418e-11, cumulative = -9.95273e-09
DICPCG:  Solving for p, Initial residual = 0.00123116, Final residual = 9.47606e-07, No Iterations 189
time step continuity errors : sum local = 4.44834e-13, global = -1.9801e-15, cumulative = -9.95273e-09
ExecutionTime = 6.83 s  ClockTime = 8 s

Time = 0.071

Courant Number mean: 0.00926961 max: 0.103033
smoothSolver:  Solving for Ux, Initial residual = 0.000599182, Final residual = 1.17024e-06, No Iterations 2
smoothSolver:  Solving for Uy, Initial residual = 0.00093062, Final residual = 1.38984e-06, No Iterations 2
DICPCG:  Solving for p, Initial residual = 0.00344213, Final residual = 0.000168671, No Iterations 66
time step continuity errors : sum local = 7.89785e-11, global = 1.56364e-11, cumulative = -9.9371e-09
DICPCG:  Solving for p, Initial residual = 0.00121503, Final residual = 9.71734e-07, No Iterations 189
time step continuity errors : sum local = 4.54759e-13, global = -2.32219e-15, cumulative = -9.9371e-09
ExecutionTime = 6.93 s  ClockTime = 8 s

Time = 0.072

Courant Number mean: 0.00926939 max: 0.102867
smoothSolver:  Solving for Ux, Initial residual = 0.000590909, Final residual = 1.15077e-06, No Iterations 2
smoothSolver:  Solving for Uy, Initial residual = 0.000922313, Final residual = 1.37278e-06, No Iterations 2
DICPCG:  Solving for p, Initial residual = 0.00339521, Final residual = 0.000167759, No Iterations 66
time step continuity errors : sum local = 7.83105e-11, global = 1.53439e-11, cumulative = -9.92176e-09
DICPCG:  Solving for p, Initial residual = 0.00119794, Final residual = 9.43383e-07, No Iterations 189
time step continuity errors : sum local = 4.40121e-13, global = -2.21685e-15, cumulative = -9.92176e-09
ExecutionTime = 7.02 s  ClockTime = 8 s

Time = 0.073

Courant Number mean: 0.00926917 max: 0.102702
smoothSolver:  Solving for Ux, Initial residual = 0.000582854, Final residual = 1.13185e-06, No Iterations 2
smoothSolver:  Solving for Uy, Initial residual = 0.00091419, Final residual = 1.35614e-06, No Iterations 2
DICPCG:  Solving for p, Initial residual = 0.00334373, Final residual = 0.000164507, No Iterations 66
time step continuity errors : sum local = 7.65631e-11, global = 1.50502e-11, cumulative = -9.90671e-09
DICPCG:  Solving for p, Initial residual = 0.00118154, Final residual = 9.65042e-07, No Iterations 189
time step continuity errors : sum local = 4.4892e-13, global = -2.27439e-15, cumulative = -9.90671e-09
ExecutionTime = 7.11 s  ClockTime = 8 s

Time = 0.074

Courant Number mean: 0.00926896 max: 0.102536
smoothSolver:  Solving for Ux, Initial residual = 0.000575015, Final residual = 1.11346e-06, No Iterations 2
smoothSolver:  Solving for Uy, Initial residual = 0.000906239, Final residual = 1.33993e-06, No Iterations 2
DICPCG:  Solving for p, Initial residual = 0.00331674, Final residual = 0.000163745, No Iterations 66
time step continuity errors : sum local = 7.59845e-11, global = 1.47913e-11, cumulative = -9.89192e-09
DICPCG:  Solving for p, Initial residual = 0.00116542, Final residual = 9.07646e-07, No Iterations 189
time step continuity errors : sum local = 4.20951e-13, global = -1.99103e-15, cumulative = -9.89192e-09
ExecutionTime = 7.21 s  ClockTime = 8 s

Time = 0.075

Courant Number mean: 0.00926875 max: 0.102372
smoothSolver:  Solving for Ux, Initial residual = 0.000567382, Final residual = 1.09556e-06, No Iterations 2
smoothSolver:  Solving for Uy, Initial residual = 0.000898474, Final residual = 1.32416e-06, No Iterations 2
DICPCG:  Solving for p, Initial residual = 0.00321886, Final residual = 0.000160019, No Iterations 66
time step continuity errors : sum local = 7.40388e-11, global = 1.45249e-11, cumulative = -9.8774e-09
DICPCG:  Solving for p, Initial residual = 0.00114716, Final residual = 8.91241e-07, No Iterations 189
time step continuity errors : sum local = 4.1216e-13, global = -1.91485e-15, cumulative = -9.8774e-09
ExecutionTime = 7.3 s  ClockTime = 8 s

Time = 0.076

Courant Number mean: 0.00926854 max: 0.102207
smoothSolver:  Solving for Ux, Initial residual = 0.000559951, Final residual = 1.07816e-06, No Iterations 2
smoothSolver:  Solving for Uy, Initial residual = 0.000890886, Final residual = 1.30872e-06, No Iterations 2
DICPCG:  Solving for p, Initial residual = 0.00315542, Final residual = 0.000156999, No Iterations 66
time step continuity errors : sum local = 7.24365e-11, global = 1.42577e-11, cumulative = -9.86314e-09
DICPCG:  Solving for p, Initial residual = 0.00113026, Final residual = 8.83678e-07, No Iterations 189
time step continuity errors : sum local = 4.07515e-13, global = -1.99325e-15, cumulative = -9.86314e-09
ExecutionTime = 7.4 s  ClockTime = 9 s

Time = 0.077

Courant Number mean: 0.00926833 max: 0.102044
smoothSolver:  Solving for Ux, Initial residual = 0.000552713, Final residual = 1.06122e-06, No Iterations 2
smoothSolver:  Solving for Uy, Initial residual = 0.000883484, Final residual = 1.29362e-06, No Iterations 2
DICPCG:  Solving for p, Initial residual = 0.00312493, Final residual = 0.00015528, No Iterations 66
time step continuity errors : sum local = 7.14483e-11, global = 1.39918e-11, cumulative = -9.84915e-09
DICPCG:  Solving for p, Initial residual = 0.00111566, Final residual = 8.71942e-07, No Iterations 189
time step continuity errors : sum local = 4.01026e-13, global = -2.02758e-15, cumulative = -9.84915e-09
ExecutionTime = 7.49 s  ClockTime = 9 s

Time = 0.078

Courant Number mean: 0.00926813 max: 0.10188
smoothSolver:  Solving for Ux, Initial residual = 0.000545671, Final residual = 1.04473e-06, No Iterations 2
smoothSolver:  Solving for Uy, Initial residual = 0.000876218, Final residual = 1.27886e-06, No Iterations 2
DICPCG:  Solving for p, Initial residual = 0.00308923, Final residual = 0.000154101, No Iterations 66
time step continuity errors : sum local = 7.07191e-11, global = 1.37371e-11, cumulative = -9.83541e-09
DICPCG:  Solving for p, Initial residual = 0.00110133, Final residual = 9.04735e-07, No Iterations 189
time step continuity errors : sum local = 4.15022e-13, global = -2.18436e-15, cumulative = -9.83542e-09
ExecutionTime = 7.58 s  ClockTime = 9 s

Time = 0.079

Courant Number mean: 0.00926793 max: 0.101718
smoothSolver:  Solving for Ux, Initial residual = 0.000538815, Final residual = 1.02868e-06, No Iterations 2
smoothSolver:  Solving for Uy, Initial residual = 0.000869091, Final residual = 1.2644e-06, No Iterations 2
DICPCG:  Solving for p, Initial residual = 0.00305804, Final residual = 0.000151392, No Iterations 66
time step continuity errors : sum local = 6.92977e-11, global = 1.34916e-11, cumulative = -9.82192e-09
DICPCG:  Solving for p, Initial residual = 0.00108795, Final residual = 8.96913e-07, No Iterations 189
time step continuity errors : sum local = 4.10391e-13, global = -2.16811e-15, cumulative = -9.82193e-09
ExecutionTime = 7.67 s  ClockTime = 9 s

Time = 0.08

Courant Number mean: 0.00926773 max: 0.101555
smoothSolver:  Solving for Ux, Initial residual = 0.000532127, Final residual = 1.01305e-06, No Iterations 2
smoothSolver:  Solving for Uy, Initial residual = 0.000862118, Final residual = 1.25025e-06, No Iterations 2
DICPCG:  Solving for p, Initial residual = 0.00301794, Final residual = 0.000149637, No Iterations 66
time step continuity errors : sum local = 6.83183e-11, global = 1.32455e-11, cumulative = -9.80868e-09
DICPCG:  Solving for p, Initial residual = 0.00107611, Final residual = 9.68234e-07, No Iterations 188
time step continuity errors : sum local = 4.41848e-13, global = -2.82107e-15, cumulative = -9.80868e-09
ExecutionTime = 7.76 s  ClockTime = 9 s

Time = 0.081

Courant Number mean: 0.00926753 max: 0.101394
smoothSolver:  Solving for Ux, Initial residual = 0.000525604, Final residual = 9.97844e-07, No Iterations 2
smoothSolver:  Solving for Uy, Initial residual = 0.000855309, Final residual = 1.23641e-06, No Iterations 2
DICPCG:  Solving for p, Initial residual = 0.00296251, Final residual = 0.000147717, No Iterations 66
time step continuity errors : sum local = 6.72675e-11, global = 1.30317e-11, cumulative = -9.79565e-09
DICPCG:  Solving for p, Initial residual = 0.00105607, Final residual = 9.84626e-07, No Iterations 188
time step continuity errors : sum local = 4.48197e-13, global = -2.69373e-15, cumulative = -9.79566e-09
ExecutionTime = 7.87 s  ClockTime = 9 s

Time = 0.082

Courant Number mean: 0.00926734 max: 0.101233
smoothSolver:  Solving for Ux, Initial residual = 0.000519242, Final residual = 9.83054e-07, No Iterations 2
smoothSolver:  Solving for Uy, Initial residual = 0.000848656, Final residual = 1.22285e-06, No Iterations 2
DICPCG:  Solving for p, Initial residual = 0.00289339, Final residual = 0.00014413, No Iterations 66
time step continuity errors : sum local = 6.5472e-11, global = 1.27639e-11, cumulative = -9.78289e-09
DICPCG:  Solving for p, Initial residual = 0.00104493, Final residual = 9.6175e-07, No Iterations 188
time step continuity errors : sum local = 4.36708e-13, global = -2.56952e-15, cumulative = -9.78289e-09
ExecutionTime = 7.97 s  ClockTime = 9 s

Time = 0.083

Courant Number mean: 0.00926715 max: 0.101073
smoothSolver:  Solving for Ux, Initial residual = 0.000513043, Final residual = 9.68679e-07, No Iterations 2
smoothSolver:  Solving for Uy, Initial residual = 0.00084214, Final residual = 1.20959e-06, No Iterations 2
DICPCG:  Solving for p, Initial residual = 0.00285977, Final residual = 0.000142897, No Iterations 66
time step continuity errors : sum local = 6.47558e-11, global = 1.25784e-11, cumulative = -9.77032e-09
DICPCG:  Solving for p, Initial residual = 0.0010294, Final residual = 9.45725e-07, No Iterations 188
time step continuity errors : sum local = 4.28411e-13, global = -2.68937e-15, cumulative = -9.77032e-09
ExecutionTime = 8.07 s  ClockTime = 9 s

Time = 0.084

Courant Number mean: 0.00926696 max: 0.100913
smoothSolver:  Solving for Ux, Initial residual = 0.000506994, Final residual = 9.54717e-07, No Iterations 2
smoothSolver:  Solving for Uy, Initial residual = 0.000835753, Final residual = 1.19659e-06, No Iterations 2
DICPCG:  Solving for p, Initial residual = 0.00282717, Final residual = 0.000132634, No Iterations 67
time step continuity errors : sum local = 5.99657e-11, global = 1.23975e-11, cumulative = -9.75792e-09
DICPCG:  Solving for p, Initial residual = 0.00101231, Final residual = 9.65947e-07, No Iterations 188
time step continuity errors : sum local = 4.36571e-13, global = -2.74278e-15, cumulative = -9.75792e-09
ExecutionTime = 8.16 s  ClockTime = 9 s

Time = 0.085

Courant Number mean: 0.00926677 max: 0.100757
smoothSolver:  Solving for Ux, Initial residual = 0.000501085, Final residual = 9.41098e-07, No Iterations 2
smoothSolver:  Solving for Uy, Initial residual = 0.000829492, Final residual = 1.18385e-06, No Iterations 2
DICPCG:  Solving for p, Initial residual = 0.00278512, Final residual = 0.000131061, No Iterations 67
time step continuity errors : sum local = 5.91206e-11, global = 1.21808e-11, cumulative = -9.74574e-09
DICPCG:  Solving for p, Initial residual = 0.00100183, Final residual = 9.64802e-07, No Iterations 188
time step continuity errors : sum local = 4.35066e-13, global = -2.70491e-15, cumulative = -9.74575e-09
ExecutionTime = 8.27 s  ClockTime = 10 s

Time = 0.086

Courant Number mean: 0.00926659 max: 0.100601
smoothSolver:  Solving for Ux, Initial residual = 0.000495313, Final residual = 9.27806e-07, No Iterations 2
smoothSolver:  Solving for Uy, Initial residual = 0.000823356, Final residual = 1.17137e-06, No Iterations 2
DICPCG:  Solving for p, Initial residual = 0.00274987, Final residual = 0.000130026, No Iterations 67
time step continuity errors : sum local = 5.852e-11, global = 1.19767e-11, cumulative = -9.73377e-09
DICPCG:  Solving for p, Initial residual = 0.000990988, Final residual = 9.44489e-07, No Iterations 188
time step continuity errors : sum local = 4.24923e-13, global = -2.7243e-15, cumulative = -9.73377e-09
ExecutionTime = 8.4 s  ClockTime = 10 s

Time = 0.087

Courant Number mean: 0.00926641 max: 0.100447
smoothSolver:  Solving for Ux, Initial residual = 0.000489672, Final residual = 9.14827e-07, No Iterations 2
smoothSolver:  Solving for Uy, Initial residual = 0.000817349, Final residual = 1.15914e-06, No Iterations 2
DICPCG:  Solving for p, Initial residual = 0.00267543, Final residual = 0.000126534, No Iterations 67
time step continuity errors : sum local = 5.68201e-11, global = 1.17776e-11, cumulative = -9.72199e-09
DICPCG:  Solving for p, Initial residual = 0.00097503, Final residual = 9.41935e-07, No Iterations 188
time step continuity errors : sum local = 4.22835e-13, global = -2.70049e-15, cumulative = -9.722e-09
ExecutionTime = 8.52 s  ClockTime = 10 s

Time = 0.088

Courant Number mean: 0.00926623 max: 0.100293
smoothSolver:  Solving for Ux, Initial residual = 0.00048416, Final residual = 9.02154e-07, No Iterations 2
smoothSolver:  Solving for Uy, Initial residual = 0.000811456, Final residual = 1.14719e-06, No Iterations 2
DICPCG:  Solving for p, Initial residual = 0.00261906, Final residual = 0.000124821, No Iterations 67
time step continuity errors : sum local = 5.59302e-11, global = 1.15799e-11, cumulative = -9.71042e-09
DICPCG:  Solving for p, Initial residual = 0.000962075, Final residual = 9.26848e-07, No Iterations 188
time step continuity errors : sum local = 4.15184e-13, global = -2.70336e-15, cumulative = -9.71042e-09
ExecutionTime = 8.63 s  ClockTime = 10 s

Time = 0.089

Courant Number mean: 0.00926605 max: 0.100141
smoothSolver:  Solving for Ux, Initial residual = 0.000478772, Final residual = 8.89779e-07, No Iterations 2
smoothSolver:  Solving for Uy, Initial residual = 0.000805687, Final residual = 1.13548e-06, No Iterations 2
DICPCG:  Solving for p, Initial residual = 0.0025876, Final residual = 0.000122515, No Iterations 67
time step continuity errors : sum local = 5.47832e-11, global = 1.13822e-11, cumulative = -9.69904e-09
DICPCG:  Solving for p, Initial residual = 0.00094954, Final residual = 9.23729e-07, No Iterations 188
time step continuity errors : sum local = 4.12933e-13, global = -2.68443e-15, cumulative = -9.69904e-09
ExecutionTime = 8.74 s  ClockTime = 10 s

Time = 0.09

Courant Number mean: 0.00926588 max: 0.0999886
smoothSolver:  Solving for Ux, Initial residual = 0.000473506, Final residual = 8.77686e-07, No Iterations 2
smoothSolver:  Solving for Uy, Initial residual = 0.00080005, Final residual = 1.12399e-06, No Iterations 2
DICPCG:  Solving for p, Initial residual = 0.00257428, Final residual = 0.000122015, No Iterations 67
time step continuity errors : sum local = 5.44492e-11, global = 1.11943e-11, cumulative = -9.68785e-09
DICPCG:  Solving for p, Initial residual = 0.000937678, Final residual = 9.14381e-07, No Iterations 188
time step continuity errors : sum local = 4.07934e-13, global = -2.70358e-15, cumulative = -9.68785e-09
ExecutionTime = 8.87 s  ClockTime = 10 s

Time = 0.091

Courant Number mean: 0.0092657 max: 0.0998466
smoothSolver:  Solving for Ux, Initial residual = 0.000468361, Final residual = 8.65869e-07, No Iterations 2
smoothSolver:  Solving for Uy, Initial residual = 0.000794515, Final residual = 1.11272e-06, No Iterations 2
DICPCG:  Solving for p, Initial residual = 0.002554, Final residual = 0.000120289, No Iterations 67
time step continuity errors : sum local = 5.35724e-11, global = 1.10058e-11, cumulative = -9.67684e-09
DICPCG:  Solving for p, Initial residual = 0.000931693, Final residual = 8.89984e-07, No Iterations 188
time step continuity errors : sum local = 3.96264e-13, global = -2.63906e-15, cumulative = -9.67685e-09
ExecutionTime = 9 s  ClockTime = 10 s

Time = 0.092

Courant Number mean: 0.00926553 max: 0.099727
smoothSolver:  Solving for Ux, Initial residual = 0.000463339, Final residual = 8.54323e-07, No Iterations 2
smoothSolver:  Solving for Uy, Initial residual = 0.000789078, Final residual = 1.10166e-06, No Iterations 2
DICPCG:  Solving for p, Initial residual = 0.00251674, Final residual = 0.000118781, No Iterations 67
time step continuity errors : sum local = 5.27975e-11, global = 1.08226e-11, cumulative = -9.66602e-09
DICPCG:  Solving for p, Initial residual = 0.000919157, Final residual = 8.82584e-07, No Iterations 188
time step continuity errors : sum local = 3.92202e-13, global = -2.61777e-15, cumulative = -9.66603e-09
ExecutionTime = 9.09 s  ClockTime = 10 s

Time = 0.093

Courant Number mean: 0.00926537 max: 0.0996088
smoothSolver:  Solving for Ux, Initial residual = 0.000458427, Final residual = 8.43041e-07, No Iterations 2
smoothSolver:  Solving for Uy, Initial residual = 0.000783742, Final residual = 1.09081e-06, No Iterations 2
DICPCG:  Solving for p, Initial residual = 0.00249922, Final residual = 0.000118371, No Iterations 67
time step continuity errors : sum local = 5.25154e-11, global = 1.06443e-11, cumulative = -9.65538e-09
DICPCG:  Solving for p, Initial residual = 0.000910931, Final residual = 8.88343e-07, No Iterations 188
time step continuity errors : sum local = 3.94025e-13, global = -2.5285e-15, cumulative = -9.65538e-09
ExecutionTime = 9.19 s  ClockTime = 11 s

Time = 0.094

Courant Number mean: 0.0092652 max: 0.0994922
smoothSolver:  Solving for Ux, Initial residual = 0.000453619, Final residual = 8.32014e-07, No Iterations 2
smoothSolver:  Solving for Uy, Initial residual = 0.000778495, Final residual = 1.08017e-06, No Iterations 2
DICPCG:  Solving for p, Initial residual = 0.00247125, Final residual = 0.000117079, No Iterations 67
time step continuity errors : sum local = 5.18453e-11, global = 1.047e-11, cumulative = -9.64491e-09
DICPCG:  Solving for p, Initial residual = 0.000899173, Final residual = 9.90396e-07, No Iterations 187
time step continuity errors : sum local = 4.38463e-13, global = -3.15098e-15, cumulative = -9.64492e-09
ExecutionTime = 9.32 s  ClockTime = 11 s

Time = 0.095

Courant Number mean: 0.00926503 max: 0.0993758
smoothSolver:  Solving for Ux, Initial residual = 0.000448913, Final residual = 8.21241e-07, No Iterations 2
smoothSolver:  Solving for Uy, Initial residual = 0.000773337, Final residual = 1.06973e-06, No Iterations 2
DICPCG:  Solving for p, Initial residual = 0.00245955, Final residual = 0.000115958, No Iterations 67
time step continuity errors : sum local = 5.1254e-11, global = 1.02989e-11, cumulative = -9.63462e-09
DICPCG:  Solving for p, Initial residual = 0.000891899, Final residual = 9.85166e-07, No Iterations 187
time step continuity errors : sum local = 4.35349e-13, global = -3.02862e-15, cumulative = -9.63462e-09
ExecutionTime = 9.43 s  ClockTime = 11 s

Time = 0.096

Courant Number mean: 0.00926487 max: 0.0992596
smoothSolver:  Solving for Ux, Initial residual = 0.000444307, Final residual = 8.10713e-07, No Iterations 2
smoothSolver:  Solving for Uy, Initial residual = 0.000768262, Final residual = 1.0595e-06, No Iterations 2
DICPCG:  Solving for p, Initial residual = 0.00241436, Final residual = 0.000115223, No Iterations 67
time step continuity errors : sum local = 5.08399e-11, global = 1.013e-11, cumulative = -9.62449e-09
DICPCG:  Solving for p, Initial residual = 0.000881639, Final residual = 9.81261e-07, No Iterations 187
time step continuity errors : sum local = 4.32886e-13, global = -2.91421e-15, cumulative = -9.62449e-09
ExecutionTime = 9.53 s  ClockTime = 11 s

Time = 0.097

Courant Number mean: 0.00926471 max: 0.0991436
smoothSolver:  Solving for Ux, Initial residual = 0.000439798, Final residual = 8.00426e-07, No Iterations 2
smoothSolver:  Solving for Uy, Initial residual = 0.000763264, Final residual = 1.04946e-06, No Iterations 2
DICPCG:  Solving for p, Initial residual = 0.00240591, Final residual = 0.000113504, No Iterations 67
time step continuity errors : sum local = 4.99938e-11, global = 9.97725e-12, cumulative = -9.61452e-09
DICPCG:  Solving for p, Initial residual = 0.000875713, Final residual = 9.97342e-07, No Iterations 186
time step continuity errors : sum local = 4.39177e-13, global = -3.27709e-15, cumulative = -9.61452e-09
ExecutionTime = 9.63 s  ClockTime = 11 s

Time = 0.098

Courant Number mean: 0.00926455 max: 0.0990279
smoothSolver:  Solving for Ux, Initial residual = 0.000435383, Final residual = 7.90393e-07, No Iterations 2
smoothSolver:  Solving for Uy, Initial residual = 0.000758346, Final residual = 1.03959e-06, No Iterations 2
DICPCG:  Solving for p, Initial residual = 0.00235636, Final residual = 0.000111968, No Iterations 67
time step continuity errors : sum local = 4.92284e-11, global = 9.80755e-12, cumulative = -9.60471e-09
DICPCG:  Solving for p, Initial residual = 0.00086121, Final residual = 9.88106e-07, No Iterations 186
time step continuity errors : sum local = 4.34329e-13, global = -3.26909e-15, cumulative = -9.60472e-09
ExecutionTime = 9.75 s  ClockTime = 11 s

Time = 0.099

Courant Number mean: 0.0092644 max: 0.0989125
smoothSolver:  Solving for Ux, Initial residual = 0.000431064, Final residual = 7.80591e-07, No Iterations 2
smoothSolver:  Solving for Uy, Initial residual = 0.000753511, Final residual = 1.0299e-06, No Iterations 2
DICPCG:  Solving for p, Initial residual = 0.00231579, Final residual = 0.000110062, No Iterations 67
time step continuity errors : sum local = 4.83063e-11, global = 9.65005e-12, cumulative = -9.59507e-09
DICPCG:  Solving for p, Initial residual = 0.000851288, Final residual = 9.82198e-07, No Iterations 186
time step continuity errors : sum local = 4.31001e-13, global = -3.17849e-15, cumulative = -9.59507e-09
ExecutionTime = 9.85 s  ClockTime = 11 s

Time = 0.1

Courant Number mean: 0.00926425 max: 0.0987973
smoothSolver:  Solving for Ux, Initial residual = 0.000426835, Final residual = 7.71008e-07, No Iterations 2
smoothSolver:  Solving for Uy, Initial residual = 0.000748749, Final residual = 1.02038e-06, No Iterations 2
DICPCG:  Solving for p, Initial residual = 0.00232187, Final residual = 0.000109112, No Iterations 67
time step continuity errors : sum local = 4.78091e-11, global = 9.49615e-12, cumulative = -9.58557e-09
DICPCG:  Solving for p, Initial residual = 0.00084251, Final residual = 9.73699e-07, No Iterations 186
time step continuity errors : sum local = 4.26556e-13, global = -3.1734e-15, cumulative = -9.58558e-09
ExecutionTime = 9.97 s  ClockTime = 11 s

Time = 0.101

Courant Number mean: 0.0092641 max: 0.0986825
smoothSolver:  Solving for Ux, Initial residual = 0.00042269, Final residual = 7.6162e-07, No Iterations 2
smoothSolver:  Solving for Uy, Initial residual = 0.000744067, Final residual = 1.01104e-06, No Iterations 2
DICPCG:  Solving for p, Initial residual = 0.00230574, Final residual = 0.000109461, No Iterations 67
time step continuity errors : sum local = 4.78833e-11, global = 9.34738e-12, cumulative = -9.57623e-09
DICPCG:  Solving for p, Initial residual = 0.000837483, Final residual = 9.70903e-07, No Iterations 186
time step continuity errors : sum local = 4.24636e-13, global = -3.17653e-15, cumulative = -9.57623e-09
ExecutionTime = 10.06 s  ClockTime = 11 s

Time = 0.102

Courant Number mean: 0.00926395 max: 0.098568
smoothSolver:  Solving for Ux, Initial residual = 0.000418627, Final residual = 7.52425e-07, No Iterations 2
smoothSolver:  Solving for Uy, Initial residual = 0.000739459, Final residual = 1.00188e-06, No Iterations 2
DICPCG:  Solving for p, Initial residual = 0.0022584, Final residual = 0.000107171, No Iterations 67
time step continuity errors : sum local = 4.68051e-11, global = 9.20792e-12, cumulative = -9.56702e-09
DICPCG:  Solving for p, Initial residual = 0.000825774, Final residual = 9.35882e-07, No Iterations 186
time step continuity errors : sum local = 4.08645e-13, global = -3.11931e-15, cumulative = -9.56703e-09
ExecutionTime = 10.15 s  ClockTime = 12 s

Time = 0.103

Courant Number mean: 0.0092638 max: 0.0984538
smoothSolver:  Solving for Ux, Initial residual = 0.000414644, Final residual = 7.43414e-07, No Iterations 2
smoothSolver:  Solving for Uy, Initial residual = 0.000734934, Final residual = 9.92895e-07, No Iterations 2
DICPCG:  Solving for p, Initial residual = 0.00221166, Final residual = 0.00010437, No Iterations 67
time step continuity errors : sum local = 4.55084e-11, global = 9.06274e-12, cumulative = -9.55796e-09
DICPCG:  Solving for p, Initial residual = 0.000814156, Final residual = 9.58013e-07, No Iterations 186
time step continuity errors : sum local = 4.17645e-13, global = -3.06531e-15, cumulative = -9.55797e-09
ExecutionTime = 10.25 s  ClockTime = 12 s

Time = 0.104

Courant Number mean: 0.00926365 max: 0.0983399
smoothSolver:  Solving for Ux, Initial residual = 0.00041074, Final residual = 7.34583e-07, No Iterations 2
smoothSolver:  Solving for Uy, Initial residual = 0.000730495, Final residual = 9.84051e-07, No Iterations 2
DICPCG:  Solving for p, Initial residual = 0.00216572, Final residual = 0.000103844, No Iterations 67
time step continuity errors : sum local = 4.52095e-11, global = 8.91737e-12, cumulative = -9.54905e-09
DICPCG:  Solving for p, Initial residual = 0.00080578, Final residual = 9.49297e-07, No Iterations 186
time step continuity errors : sum local = 4.13224e-13, global = -2.988e-15, cumulative = -9.54905e-09
ExecutionTime = 10.35 s  ClockTime = 12 s

Time = 0.105

Courant Number mean: 0.00926351 max: 0.0982264
smoothSolver:  Solving for Ux, Initial residual = 0.000406913, Final residual = 7.25927e-07, No Iterations 2
smoothSolver:  Solving for Uy, Initial residual = 0.000726123, Final residual = 9.75353e-07, No Iterations 2
DICPCG:  Solving for p, Initial residual = 0.00216278, Final residual = 0.000103285, No Iterations 67
time step continuity errors : sum local = 4.48988e-11, global = 8.784e-12, cumulative = -9.54027e-09
DICPCG:  Solving for p, Initial residual = 0.00079752, Final residual = 9.40298e-07, No Iterations 186
time step continuity errors : sum local = 4.08685e-13, global = -3.01681e-15, cumulative = -9.54027e-09
ExecutionTime = 10.45 s  ClockTime = 12 s

Time = 0.106

Courant Number mean: 0.00926336 max: 0.0981133
smoothSolver:  Solving for Ux, Initial residual = 0.000403163, Final residual = 7.17443e-07, No Iterations 2
smoothSolver:  Solving for Uy, Initial residual = 0.000721815, Final residual = 9.66806e-07, No Iterations 2
DICPCG:  Solving for p, Initial residual = 0.00216093, Final residual = 0.000103029, No Iterations 67
time step continuity errors : sum local = 4.47223e-11, global = 8.65233e-12, cumulative = -9.53162e-09
DICPCG:  Solving for p, Initial residual = 0.000788509, Final residual = 9.3538e-07, No Iterations 186
time step continuity errors : sum local = 4.05975e-13, global = -2.85817e-15, cumulative = -9.53162e-09
ExecutionTime = 10.54 s  ClockTime = 12 s

Time = 0.107

Courant Number mean: 0.00926322 max: 0.0980006
smoothSolver:  Solving for Ux, Initial residual = 0.000399489, Final residual = 7.09125e-07, No Iterations 2
smoothSolver:  Solving for Uy, Initial residual = 0.000717565, Final residual = 9.58397e-07, No Iterations 2
DICPCG:  Solving for p, Initial residual = 0.00214644, Final residual = 0.000101839, No Iterations 67
time step continuity errors : sum local = 4.41435e-11, global = 8.51699e-12, cumulative = -9.52311e-09
DICPCG:  Solving for p, Initial residual = 0.00078498, Final residual = 9.25658e-07, No Iterations 186
time step continuity errors : sum local = 4.01181e-13, global = -2.89594e-15, cumulative = -9.52311e-09
ExecutionTime = 10.64 s  ClockTime = 12 s

Time = 0.108

Courant Number mean: 0.00926309 max: 0.0978882
smoothSolver:  Solving for Ux, Initial residual = 0.000395883, Final residual = 7.00969e-07, No Iterations 2
smoothSolver:  Solving for Uy, Initial residual = 0.000713376, Final residual = 9.50126e-07, No Iterations 2
DICPCG:  Solving for p, Initial residual = 0.00212349, Final residual = 0.000102429, No Iterations 67
time step continuity errors : sum local = 4.43355e-11, global = 8.40081e-12, cumulative = -9.51471e-09
DICPCG:  Solving for p, Initial residual = 0.00077593, Final residual = 9.32639e-07, No Iterations 186
time step continuity errors : sum local = 4.03623e-13, global = -2.9169e-15, cumulative = -9.51471e-09
ExecutionTime = 10.73 s  ClockTime = 12 s

Time = 0.109

Courant Number mean: 0.00926295 max: 0.0977763
[...]
smoothSolver:  Solving for Uy, Initial residual = 0.000404217, Final residual = 6.9272e-06, No Iterations 1
DICPCG:  Solving for p, Initial residual = 0.00136599, Final residual = 6.52068e-05, No Iterations 136
time step continuity errors : sum local = 2.62995e-11, global = -4.60993e-13, cumulative = -8.47313e-09
DICPCG:  Solving for p, Initial residual = 0.00101111, Final residual = 9.50022e-07, No Iterations 190
time step continuity errors : sum local = 3.82398e-13, global = -8.37372e-16, cumulative = -8.47313e-09
ExecutionTime = 30.45 s  ClockTime = 33 s

Time = 0.272

Courant Number mean: 0.00925758 max: 0.0877736
smoothSolver:  Solving for Ux, Initial residual = 0.00016818, Final residual = 3.79226e-06, No Iterations 1
smoothSolver:  Solving for Uy, Initial residual = 0.000403339, Final residual = 6.90445e-06, No Iterations 1
DICPCG:  Solving for p, Initial residual = 0.0013494, Final residual = 6.4755e-05, No Iterations 136
time step continuity errors : sum local = 2.61162e-11, global = -4.59665e-13, cumulative = -8.47359e-09
DICPCG:  Solving for p, Initial residual = 0.00100828, Final residual = 8.75093e-07, No Iterations 191
time step continuity errors : sum local = 3.52224e-13, global = -1.35171e-15, cumulative = -8.47359e-09
ExecutionTime = 30.58 s  ClockTime = 34 s

Time = 0.273

Courant Number mean: 0.00925761 max: 0.0877417
smoothSolver:  Solving for Ux, Initial residual = 0.000167643, Final residual = 3.77561e-06, No Iterations 1
smoothSolver:  Solving for Uy, Initial residual = 0.000402464, Final residual = 6.88184e-06, No Iterations 1
DICPCG:  Solving for p, Initial residual = 0.0013561, Final residual = 6.61759e-05, No Iterations 136
time step continuity errors : sum local = 2.66882e-11, global = -4.64058e-13, cumulative = -8.47405e-09
DICPCG:  Solving for p, Initial residual = 0.00100667, Final residual = 8.73006e-07, No Iterations 191
time step continuity errors : sum local = 3.51371e-13, global = -1.33619e-15, cumulative = -8.47405e-09
ExecutionTime = 30.7 s  ClockTime = 34 s

Time = 0.274

Courant Number mean: 0.00925765 max: 0.0877098
smoothSolver:  Solving for Ux, Initial residual = 0.00016711, Final residual = 3.75909e-06, No Iterations 1
smoothSolver:  Solving for Uy, Initial residual = 0.000401594, Final residual = 6.85939e-06, No Iterations 1
DICPCG:  Solving for p, Initial residual = 0.00134841, Final residual = 6.42235e-05, No Iterations 136
time step continuity errors : sum local = 2.59e-11, global = -4.59471e-13, cumulative = -8.47451e-09
DICPCG:  Solving for p, Initial residual = 0.00100307, Final residual = 9.43414e-07, No Iterations 190
time step continuity errors : sum local = 3.79704e-13, global = -8.50578e-16, cumulative = -8.47451e-09
ExecutionTime = 30.81 s  ClockTime = 34 s

Time = 0.275

Courant Number mean: 0.00925769 max: 0.0876781
smoothSolver:  Solving for Ux, Initial residual = 0.00016658, Final residual = 3.74269e-06, No Iterations 1
smoothSolver:  Solving for Uy, Initial residual = 0.00040073, Final residual = 6.83704e-06, No Iterations 1
DICPCG:  Solving for p, Initial residual = 0.0013717, Final residual = 6.13676e-05, No Iterations 136
time step continuity errors : sum local = 2.47486e-11, global = -4.56012e-13, cumulative = -8.47497e-09
DICPCG:  Solving for p, Initial residual = 0.00100057, Final residual = 8.60813e-07, No Iterations 191
time step continuity errors : sum local = 3.46476e-13, global = -1.33029e-15, cumulative = -8.47497e-09
ExecutionTime = 30.93 s  ClockTime = 34 s

Time = 0.276

Courant Number mean: 0.00925772 max: 0.0876466
smoothSolver:  Solving for Ux, Initial residual = 0.000166055, Final residual = 3.72641e-06, No Iterations 1
smoothSolver:  Solving for Uy, Initial residual = 0.000399872, Final residual = 6.81491e-06, No Iterations 1
DICPCG:  Solving for p, Initial residual = 0.00133568, Final residual = 6.4927e-05, No Iterations 136
time step continuity errors : sum local = 2.61845e-11, global = -4.62446e-13, cumulative = -8.47543e-09
DICPCG:  Solving for p, Initial residual = 0.000998444, Final residual = 8.4961e-07, No Iterations 191
time step continuity errors : sum local = 3.41966e-13, global = -1.32757e-15, cumulative = -8.47543e-09
ExecutionTime = 31.05 s  ClockTime = 34 s

Time = 0.277

Courant Number mean: 0.00925776 max: 0.0876151
smoothSolver:  Solving for Ux, Initial residual = 0.000165533, Final residual = 3.71027e-06, No Iterations 1
smoothSolver:  Solving for Uy, Initial residual = 0.000399017, Final residual = 6.79283e-06, No Iterations 1
DICPCG:  Solving for p, Initial residual = 0.00141617, Final residual = 7.02245e-05, No Iterations 134
time step continuity errors : sum local = 2.83178e-11, global = -5.58403e-13, cumulative = -8.47599e-09
DICPCG:  Solving for p, Initial residual = 0.00100315, Final residual = 8.63956e-07, No Iterations 191
time step continuity errors : sum local = 3.47668e-13, global = -1.57505e-15, cumulative = -8.47599e-09
ExecutionTime = 31.17 s  ClockTime = 34 s

Time = 0.278

Courant Number mean: 0.0092578 max: 0.0875837
smoothSolver:  Solving for Ux, Initial residual = 0.000165016, Final residual = 3.69423e-06, No Iterations 1
smoothSolver:  Solving for Uy, Initial residual = 0.000398164, Final residual = 6.77077e-06, No Iterations 1
DICPCG:  Solving for p, Initial residual = 0.00137178, Final residual = 6.53412e-05, No Iterations 136
time step continuity errors : sum local = 2.63461e-11, global = -4.56436e-13, cumulative = -8.47645e-09
DICPCG:  Solving for p, Initial residual = 0.000996908, Final residual = 9.97316e-07, No Iterations 190
time step continuity errors : sum local = 4.01346e-13, global = -6.09219e-16, cumulative = -8.47645e-09
ExecutionTime = 31.29 s  ClockTime = 34 s

Time = 0.279

Courant Number mean: 0.00925784 max: 0.0875524
smoothSolver:  Solving for Ux, Initial residual = 0.000164502, Final residual = 3.67832e-06, No Iterations 1
smoothSolver:  Solving for Uy, Initial residual = 0.000397319, Final residual = 6.74895e-06, No Iterations 1
DICPCG:  Solving for p, Initial residual = 0.00138987, Final residual = 6.89065e-05, No Iterations 135
time step continuity errors : sum local = 2.77828e-11, global = -4.62931e-13, cumulative = -8.47691e-09
DICPCG:  Solving for p, Initial residual = 0.00100126, Final residual = 8.52928e-07, No Iterations 191
time step continuity errors : sum local = 3.4321e-13, global = -1.37594e-15, cumulative = -8.47692e-09
ExecutionTime = 31.4 s  ClockTime = 34 s

Time = 0.28

Courant Number mean: 0.00925788 max: 0.0875213
smoothSolver:  Solving for Ux, Initial residual = 0.000163991, Final residual = 3.66252e-06, No Iterations 1
smoothSolver:  Solving for Uy, Initial residual = 0.000396474, Final residual = 6.72733e-06, No Iterations 1
DICPCG:  Solving for p, Initial residual = 0.00134157, Final residual = 6.38027e-05, No Iterations 136
time step continuity errors : sum local = 2.57235e-11, global = -4.67101e-13, cumulative = -8.47738e-09
DICPCG:  Solving for p, Initial residual = 0.000991924, Final residual = 9.71286e-07, No Iterations 190
time step continuity errors : sum local = 3.90831e-13, global = -6.83667e-16, cumulative = -8.47738e-09
ExecutionTime = 31.52 s  ClockTime = 35 s

Time = 0.281

Courant Number mean: 0.00925792 max: 0.0874903
smoothSolver:  Solving for Ux, Initial residual = 0.000163484, Final residual = 3.64685e-06, No Iterations 1
smoothSolver:  Solving for Uy, Initial residual = 0.000395637, Final residual = 6.70584e-06, No Iterations 1
DICPCG:  Solving for p, Initial residual = 0.00132372, Final residual = 6.34436e-05, No Iterations 136
time step continuity errors : sum local = 2.55787e-11, global = -4.61599e-13, cumulative = -8.47785e-09
DICPCG:  Solving for p, Initial residual = 0.000987828, Final residual = 9.00252e-07, No Iterations 190
time step continuity errors : sum local = 3.62255e-13, global = -1.05232e-15, cumulative = -8.47785e-09
ExecutionTime = 31.63 s  ClockTime = 35 s

Time = 0.282

Courant Number mean: 0.00925796 max: 0.0874593
smoothSolver:  Solving for Ux, Initial residual = 0.000162981, Final residual = 3.6313e-06, No Iterations 1
smoothSolver:  Solving for Uy, Initial residual = 0.000394805, Final residual = 6.68453e-06, No Iterations 1
DICPCG:  Solving for p, Initial residual = 0.00131964, Final residual = 6.42301e-05, No Iterations 136
time step continuity errors : sum local = 2.58964e-11, global = -4.62099e-13, cumulative = -8.47831e-09
DICPCG:  Solving for p, Initial residual = 0.000985027, Final residual = 9.82665e-07, No Iterations 190
time step continuity errors : sum local = 3.95431e-13, global = -5.85592e-16, cumulative = -8.47831e-09
ExecutionTime = 31.75 s  ClockTime = 35 s

Time = 0.283

Courant Number mean: 0.009258 max: 0.0874285
smoothSolver:  Solving for Ux, Initial residual = 0.000162481, Final residual = 3.61586e-06, No Iterations 1
smoothSolver:  Solving for Uy, Initial residual = 0.000393977, Final residual = 6.66333e-06, No Iterations 1
DICPCG:  Solving for p, Initial residual = 0.00135249, Final residual = 6.67402e-05, No Iterations 135
time step continuity errors : sum local = 2.69066e-11, global = -4.58313e-13, cumulative = -8.47877e-09
DICPCG:  Solving for p, Initial residual = 0.000986874, Final residual = 9.87634e-07, No Iterations 190
time step continuity errors : sum local = 3.97368e-13, global = -6.05944e-16, cumulative = -8.47877e-09
ExecutionTime = 31.87 s  ClockTime = 35 s

Time = 0.284

Courant Number mean: 0.00925805 max: 0.0873978
smoothSolver:  Solving for Ux, Initial residual = 0.000161985, Final residual = 3.60054e-06, No Iterations 1
smoothSolver:  Solving for Uy, Initial residual = 0.000393151, Final residual = 6.64228e-06, No Iterations 1
DICPCG:  Solving for p, Initial residual = 0.00130227, Final residual = 6.32398e-05, No Iterations 136
time step continuity errors : sum local = 2.54925e-11, global = -4.56078e-13, cumulative = -8.47922e-09
DICPCG:  Solving for p, Initial residual = 0.000980232, Final residual = 9.04934e-07, No Iterations 190
time step continuity errors : sum local = 3.64072e-13, global = -9.49747e-16, cumulative = -8.47923e-09
ExecutionTime = 31.98 s  ClockTime = 35 s

Time = 0.285

Courant Number mean: 0.00925809 max: 0.0873672
smoothSolver:  Solving for Ux, Initial residual = 0.000161492, Final residual = 3.58534e-06, No Iterations 1
smoothSolver:  Solving for Uy, Initial residual = 0.000392331, Final residual = 6.62143e-06, No Iterations 1
DICPCG:  Solving for p, Initial residual = 0.00128042, Final residual = 6.24142e-05, No Iterations 136
time step continuity errors : sum local = 2.51586e-11, global = -4.58836e-13, cumulative = -8.47968e-09
DICPCG:  Solving for p, Initial residual = 0.000978364, Final residual = 9.02275e-07, No Iterations 190
time step continuity errors : sum local = 3.62996e-13, global = -9.04195e-16, cumulative = -8.47968e-09
ExecutionTime = 32.09 s  ClockTime = 35 s

Time = 0.286

Courant Number mean: 0.00925813 max: 0.0873367
smoothSolver:  Solving for Ux, Initial residual = 0.000161002, Final residual = 3.57024e-06, No Iterations 1
smoothSolver:  Solving for Uy, Initial residual = 0.000391517, Final residual = 6.60073e-06, No Iterations 1
DICPCG:  Solving for p, Initial residual = 0.00128085, Final residual = 6.30844e-05, No Iterations 136
time step continuity errors : sum local = 2.54282e-11, global = -4.60606e-13, cumulative = -8.48015e-09
DICPCG:  Solving for p, Initial residual = 0.000976166, Final residual = 9.70964e-07, No Iterations 190
time step continuity errors : sum local = 3.90625e-13, global = -5.83569e-16, cumulative = -8.48015e-09
ExecutionTime = 32.22 s  ClockTime = 35 s

Time = 0.287

Courant Number mean: 0.00925818 max: 0.0873063
smoothSolver:  Solving for Ux, Initial residual = 0.000160517, Final residual = 3.55526e-06, No Iterations 1
smoothSolver:  Solving for Uy, Initial residual = 0.000390707, Final residual = 6.58018e-06, No Iterations 1
DICPCG:  Solving for p, Initial residual = 0.00128474, Final residual = 6.28431e-05, No Iterations 136
time step continuity errors : sum local = 2.53306e-11, global = -4.6034e-13, cumulative = -8.48061e-09
DICPCG:  Solving for p, Initial residual = 0.000974322, Final residual = 8.82282e-07, No Iterations 190
time step continuity errors : sum local = 3.54945e-13, global = -1.09351e-15, cumulative = -8.48061e-09
ExecutionTime = 32.38 s  ClockTime = 35 s

Time = 0.288

Courant Number mean: 0.00925822 max: 0.0872761
smoothSolver:  Solving for Ux, Initial residual = 0.000160034, Final residual = 3.54038e-06, No Iterations 1
smoothSolver:  Solving for Uy, Initial residual = 0.000389901, Final residual = 6.55978e-06, No Iterations 1
DICPCG:  Solving for p, Initial residual = 0.00129574, Final residual = 6.40716e-05, No Iterations 136
time step continuity errors : sum local = 2.58257e-11, global = -4.62579e-13, cumulative = -8.48107e-09
DICPCG:  Solving for p, Initial residual = 0.000973375, Final residual = 9.64202e-07, No Iterations 190
time step continuity errors : sum local = 3.87906e-13, global = -5.94752e-16, cumulative = -8.48107e-09
ExecutionTime = 32.55 s  ClockTime = 36 s

Time = 0.289

Courant Number mean: 0.00925827 max: 0.0872459
smoothSolver:  Solving for Ux, Initial residual = 0.000159555, Final residual = 3.52561e-06, No Iterations 1
smoothSolver:  Solving for Uy, Initial residual = 0.000389102, Final residual = 6.53961e-06, No Iterations 1
DICPCG:  Solving for p, Initial residual = 0.00130498, Final residual = 6.45081e-05, No Iterations 136
time step continuity errors : sum local = 2.60014e-11, global = -4.60314e-13, cumulative = -8.48153e-09
DICPCG:  Solving for p, Initial residual = 0.000972993, Final residual = 9.57807e-07, No Iterations 190
time step continuity errors : sum local = 3.85326e-13, global = -6.59413e-16, cumulative = -8.48153e-09
ExecutionTime = 32.72 s  ClockTime = 36 s

Time = 0.29

Courant Number mean: 0.00925831 max: 0.0872158
smoothSolver:  Solving for Ux, Initial residual = 0.000159079, Final residual = 3.51095e-06, No Iterations 1
smoothSolver:  Solving for Uy, Initial residual = 0.000388308, Final residual = 6.51962e-06, No Iterations 1
DICPCG:  Solving for p, Initial residual = 0.00131084, Final residual = 6.46845e-05, No Iterations 136
time step continuity errors : sum local = 2.60712e-11, global = -4.57542e-13, cumulative = -8.48199e-09
DICPCG:  Solving for p, Initial residual = 0.000972005, Final residual = 9.56282e-07, No Iterations 190
time step continuity errors : sum local = 3.84685e-13, global = -5.6661e-16, cumulative = -8.48199e-09
ExecutionTime = 32.9 s  ClockTime = 36 s

Time = 0.291

Courant Number mean: 0.00925836 max: 0.0871859
smoothSolver:  Solving for Ux, Initial residual = 0.000158607, Final residual = 3.49641e-06, No Iterations 1
smoothSolver:  Solving for Uy, Initial residual = 0.000387514, Final residual = 6.49976e-06, No Iterations 1
DICPCG:  Solving for p, Initial residual = 0.00127625, Final residual = 6.35821e-05, No Iterations 136
time step continuity errors : sum local = 2.56257e-11, global = -4.612e-13, cumulative = -8.48245e-09
DICPCG:  Solving for p, Initial residual = 0.000966293, Final residual = 9.19885e-07, No Iterations 190
time step continuity errors : sum local = 3.7004e-13, global = -7.44273e-16, cumulative = -8.48245e-09
ExecutionTime = 33.09 s  ClockTime = 36 s

Time = 0.292

Courant Number mean: 0.00925841 max: 0.087156
smoothSolver:  Solving for Ux, Initial residual = 0.000158137, Final residual = 3.48199e-06, No Iterations 1
smoothSolver:  Solving for Uy, Initial residual = 0.000386726, Final residual = 6.48002e-06, No Iterations 1
DICPCG:  Solving for p, Initial residual = 0.00127165, Final residual = 6.34259e-05, No Iterations 136
time step continuity errors : sum local = 2.55623e-11, global = -4.64463e-13, cumulative = -8.48292e-09
DICPCG:  Solving for p, Initial residual = 0.000964811, Final residual = 9.53732e-07, No Iterations 190
time step continuity errors : sum local = 3.83649e-13, global = -6.02046e-16, cumulative = -8.48292e-09
ExecutionTime = 33.29 s  ClockTime = 36 s

Time = 0.293

Courant Number mean: 0.00925845 max: 0.0871263
smoothSolver:  Solving for Ux, Initial residual = 0.000157672, Final residual = 3.46768e-06, No Iterations 1
smoothSolver:  Solving for Uy, Initial residual = 0.000385944, Final residual = 6.46039e-06, No Iterations 1
DICPCG:  Solving for p, Initial residual = 0.0012633, Final residual = 5.83392e-05, No Iterations 137
time step continuity errors : sum local = 2.3512e-11, global = -3.59072e-13, cumulative = -8.48328e-09
DICPCG:  Solving for p, Initial residual = 0.000959674, Final residual = 9.58128e-07, No Iterations 190
time step continuity errors : sum local = 3.85418e-13, global = -5.12531e-16, cumulative = -8.48328e-09
ExecutionTime = 33.46 s  ClockTime = 37 s

Time = 0.294

Courant Number mean: 0.0092585 max: 0.0870967
smoothSolver:  Solving for Ux, Initial residual = 0.000157209, Final residual = 3.45348e-06, No Iterations 1
smoothSolver:  Solving for Uy, Initial residual = 0.000385167, Final residual = 6.44092e-06, No Iterations 1
DICPCG:  Solving for p, Initial residual = 0.00125849, Final residual = 6.1186e-05, No Iterations 136
time step continuity errors : sum local = 2.46594e-11, global = -4.48301e-13, cumulative = -8.48372e-09
DICPCG:  Solving for p, Initial residual = 0.000959748, Final residual = 9.35877e-07, No Iterations 190
time step continuity errors : sum local = 3.76472e-13, global = -6.38534e-16, cumulative = -8.48373e-09
ExecutionTime = 33.65 s  ClockTime = 37 s

Time = 0.295

Courant Number mean: 0.00925855 max: 0.0870671
smoothSolver:  Solving for Ux, Initial residual = 0.00015675, Final residual = 3.43939e-06, No Iterations 1
smoothSolver:  Solving for Uy, Initial residual = 0.000384395, Final residual = 6.42154e-06, No Iterations 1
DICPCG:  Solving for p, Initial residual = 0.00126935, Final residual = 6.26857e-05, No Iterations 136
time step continuity errors : sum local = 2.52644e-11, global = -4.61922e-13, cumulative = -8.48419e-09
DICPCG:  Solving for p, Initial residual = 0.000958514, Final residual = 9.44948e-07, No Iterations 190
time step continuity errors : sum local = 3.80138e-13, global = -6.30992e-16, cumulative = -8.48419e-09
ExecutionTime = 33.81 s  ClockTime = 37 s

Time = 0.296

Courant Number mean: 0.0092586 max: 0.0870377
smoothSolver:  Solving for Ux, Initial residual = 0.000156295, Final residual = 3.4254e-06, No Iterations 1
smoothSolver:  Solving for Uy, Initial residual = 0.000383629, Final residual = 6.40229e-06, No Iterations 1
DICPCG:  Solving for p, Initial residual = 0.00126163, Final residual = 5.85722e-05, No Iterations 137
time step continuity errors : sum local = 2.36065e-11, global = -3.58265e-13, cumulative = -8.48455e-09
DICPCG:  Solving for p, Initial residual = 0.000953529, Final residual = 9.53334e-07, No Iterations 190
time step continuity errors : sum local = 3.83498e-13, global = -4.63363e-16, cumulative = -8.48455e-09
ExecutionTime = 33.98 s  ClockTime = 37 s

Time = 0.297

Courant Number mean: 0.00925865 max: 0.0870084
smoothSolver:  Solving for Ux, Initial residual = 0.000155842, Final residual = 3.41151e-06, No Iterations 1
smoothSolver:  Solving for Uy, Initial residual = 0.000382863, Final residual = 6.38308e-06, No Iterations 1
DICPCG:  Solving for p, Initial residual = 0.00126815, Final residual = 6.33401e-05, No Iterations 136
time step continuity errors : sum local = 2.5527e-11, global = -4.63667e-13, cumulative = -8.48501e-09
DICPCG:  Solving for p, Initial residual = 0.000954719, Final residual = 9.4054e-07, No Iterations 190
time step continuity errors : sum local = 3.78333e-13, global = -5.4917e-16, cumulative = -8.48501e-09
ExecutionTime = 34.16 s  ClockTime = 37 s

Time = 0.298

Courant Number mean: 0.0092587 max: 0.0869792
smoothSolver:  Solving for Ux, Initial residual = 0.000155393, Final residual = 3.39772e-06, No Iterations 1
smoothSolver:  Solving for Uy, Initial residual = 0.000382101, Final residual = 6.36399e-06, No Iterations 1
