/work/05113/danieler/stampede2/CFD-Final-Project/circular-cylinder-3-1
Sun May 10 21:30:10 CDT 2020
/*---------------------------------------------------------------------------*\
  =========                 |
  \\      /  F ield         | OpenFOAM: The Open Source CFD Toolbox
   \\    /   O peration     | Website:  https://openfoam.org
    \\  /    A nd           | Version:  6.0
     \\/     M anipulation  |
\*---------------------------------------------------------------------------*/
Build  : 6.0
Exec   : blockMesh
Date   : May 10 2020
Time   : 21:30:12
Host   : "c450-002.stampede2.tacc.utexas.edu"
PID    : 142751
I/O    : uncollated
Case   : /work/05113/danieler/stampede2/CFD-Final-Project/circular-cylinder-3-1
nProcs : 1
sigFpe : Enabling floating point exception trapping (FOAM_SIGFPE).
fileModificationChecking : Monitoring run-time modified files using timeStampMaster (fileModificationSkew 10)
allowSystemOperations : Allowing user-supplied system call operations

// * * * * * * * * * * * * * * * * * * * * * * * * * * * * * * * * * * * * * //
Create time

Deleting polyMesh directory
    "/work/05113/danieler/stampede2/CFD-Final-Project/circular-cylinder-3-1/constant/polyMesh"
Creating block mesh from
    "/work/05113/danieler/stampede2/CFD-Final-Project/circular-cylinder-3-1/system/blockMeshDict"
Creating block edges
No non-planar block faces defined
Creating topology blocks
Creating topology patches

Creating block mesh topology

Check topology

	Basic statistics
		Number of internal faces : 28
		Number of boundary faces : 64
		Number of defined boundary faces : 64
		Number of undefined boundary faces : 0
	Checking patch -> block consistency

Creating block offsets
Creating merge list .

Creating polyMesh from blockMesh
Creating points with scale 1
    Block 0 cell size :
        i : 0.0166667 .. 0.0166667
        j : 0.0130894 .. 0.0130894
        k : 1 .. 1

    Block 1 cell size :
        i : 0.0130894 .. 0.0130894
        j : 0.0166667 .. 0.0166667
        k : 1 .. 1

    Block 2 cell size :
        i : 0.0130894 .. 0.0130894
        j : 0.0166641 .. 0.0166641
        k : 1 .. 1

    Block 3 cell size :
        i : 0.0166667 .. 0.0166667
        j : 0.0261788 .. 0.0261788
        k : 1 .. 1

    Block 4 cell size :
        i : 0.0166641 .. 0.0166641
        j : 0.0261788 .. 0.0261788
        k : 1 .. 1

    Block 5 cell size :
        i : 0.0261788 .. 0.0261788
        j : 0.0166641 .. 0.0166641
        k : 1 .. 1

    Block 6 cell size :
        i : 0.0261788 .. 0.0261788
        j : 0.0166667 .. 0.0166667
        k : 1 .. 1

    Block 7 cell size :
        i : 0.0166641 .. 0.0166641
        j : 0.0130894 .. 0.0130894
        k : 1 .. 1

    Block 8 cell size :
        i : 0.115067 .. 0.575334
        j : 0.0261788 .. 0.0261788
        k : 1 .. 1

    Block 9 cell size :
        i : 0.117997 .. 0.589987
        j : 0.0371924 .. 0.185962
        k : 1 .. 1

    Block 10 cell size :
        i : 0.0261788 .. 0.0261788
        j : 0.0332919 .. 0.166459
        k : 1 .. 1

    Block 11 cell size :
        i : 0.0261788 .. 0.0261788
        j : 0.0371924 .. 0.185962
        k : 1 .. 1

    Block 12 cell size :
        i : 0.0930967 .. 0.0930967
        j : 0.0371924 .. 0.185962
        k : 1 .. 1

    Block 13 cell size :
        i : 0.0833333 .. 0.0833333
        j : 0.02357 .. 0.02357
        k : 1 .. 1

    Block 14 cell size :
        i : 0.0930967 .. 0.0930967
        j : 0.02357 .. 0.02357
        k : 1 .. 1

    Block 15 cell size :
        i : 0.0930967 .. 0.0930967
        j : 0.185962 .. 0.0371924
        k : 1 .. 1

    Block 16 cell size :
        i : 0.02357 .. 0.02357
        j : 0.185962 .. 0.0371924
        k : 1 .. 1

    Block 17 cell size :
        i : 0.02357 .. 0.02357
        j : 0.166459 .. 0.0332919
        k : 1 .. 1

    Block 18 cell size :
        i : 0.117997 .. 0.589987
        j : 0.185962 .. 0.0371924
        k : 1 .. 1

    Block 19 cell size :
        i : 0.117997 .. 0.589987
        j : 0.0261788 .. 0.0261788
        k : 1 .. 1

Creating cells
Creating patches

Writing polyMesh
----------------
Mesh Information
----------------
  boundingBox: (-3.5 -3.5 0) (12.5 3.5 1)
  nPoints: 39140
  nCells: 19200
  nFaces: 77170
  nInternalFaces: 38030
----------------
Patches
----------------
  patch 0 (start: 38030 size: 120) name: inlet
  patch 1 (start: 38150 size: 120) name: outlet
  patch 2 (start: 38270 size: 130) name: top
  patch 3 (start: 38400 size: 130) name: bottom
  patch 4 (start: 38530 size: 240) name: cylinder
  patch 5 (start: 38770 size: 38400) name: frontandback

End

/*---------------------------------------------------------------------------*\
  =========                 |
  \\      /  F ield         | OpenFOAM: The Open Source CFD Toolbox
   \\    /   O peration     | Website:  https://openfoam.org
    \\  /    A nd           | Version:  6.0
     \\/     M anipulation  |
\*---------------------------------------------------------------------------*/
Build  : 6.0
Exec   : checkMesh
Date   : May 10 2020
Time   : 21:30:15
Host   : "c450-002.stampede2.tacc.utexas.edu"
PID    : 142759
I/O    : uncollated
Case   : /work/05113/danieler/stampede2/CFD-Final-Project/circular-cylinder-3-1
nProcs : 1
sigFpe : Enabling floating point exception trapping (FOAM_SIGFPE).
fileModificationChecking : Monitoring run-time modified files using timeStampMaster (fileModificationSkew 10)
allowSystemOperations : Allowing user-supplied system call operations

// * * * * * * * * * * * * * * * * * * * * * * * * * * * * * * * * * * * * * //
Create time

Create polyMesh for time = 0

Time = 0

Mesh stats
    points:           39140
    internal points:  0
    faces:            77170
    internal faces:   38030
    cells:            19200
    faces per cell:   6
    boundary patches: 6
    point zones:      0
    face zones:       0
    cell zones:       0

Overall number of cells of each type:
    hexahedra:     19200
    prisms:        0
    wedges:        0
    pyramids:      0
    tet wedges:    0
    tetrahedra:    0
    polyhedra:     0

Checking topology...
    Boundary definition OK.
    Cell to face addressing OK.
    Point usage OK.
    Upper triangular ordering OK.
    Face vertices OK.
    Number of regions: 1 (OK).

Checking patch topology for multiply connected surfaces...
    Patch               Faces    Points   Surface topology                  
    inlet               120      242      ok (non-closed singly connected)  
    outlet              120      242      ok (non-closed singly connected)  
    top                 130      262      ok (non-closed singly connected)  
    bottom              130      262      ok (non-closed singly connected)  
    cylinder            240      480      ok (non-closed singly connected)  
    frontandback        38400    39140    ok (non-closed singly connected)  

Checking geometry...
    Overall domain bounding box (-3.5 -3.5 0) (12.5 3.5 1)
    Mesh has 2 geometric (non-empty/wedge) directions (1 1 0)
    Mesh has 2 solution (non-empty) directions (1 1 0)
    All edges aligned with or perpendicular to non-empty directions.
    Boundary openness (4.90578e-18 1.72111e-16 -2.31089e-15) OK.
    Max cell openness = 2.19862e-16 OK.
    Max aspect ratio = 25.0313 OK.
    Minimum face area = 0.000221741. Maximum face area = 0.589987.  Face area magnitudes OK.
    Min volume = 0.000221741. Max volume = 0.109715.  Total volume = 111.215.  Cell volumes OK.
    Mesh non-orthogonality Max: 43.8961 average: 11.3518
    Non-orthogonality check OK.
    Face pyramids OK.
    Max skewness = 0.516814 OK.
    Coupled point location match (average 0) OK.

Mesh OK.

End

/*---------------------------------------------------------------------------*\
  =========                 |
  \\      /  F ield         | OpenFOAM: The Open Source CFD Toolbox
   \\    /   O peration     | Website:  https://openfoam.org
    \\  /    A nd           | Version:  6.0
     \\/     M anipulation  |
\*---------------------------------------------------------------------------*/
Build  : 6.0
Exec   : decomposePar
Date   : May 10 2020
Time   : 21:30:18
Host   : "c450-002.stampede2.tacc.utexas.edu"
PID    : 142817
I/O    : uncollated
Case   : /work/05113/danieler/stampede2/CFD-Final-Project/circular-cylinder-3-1
nProcs : 1
sigFpe : Enabling floating point exception trapping (FOAM_SIGFPE).
fileModificationChecking : Monitoring run-time modified files using timeStampMaster (fileModificationSkew 10)
allowSystemOperations : Allowing user-supplied system call operations

// * * * * * * * * * * * * * * * * * * * * * * * * * * * * * * * * * * * * * //
Create time



Decomposing mesh region0

Create mesh

Calculating distribution of cells
Selecting decompositionMethod hierarchical

Finished decomposition in 0.03 s

Calculating original mesh data

Distributing cells to processors

Distributing faces to processors

Distributing points to processors

Constructing processor meshes

Processor 0
    Number of cells = 4800
    Number of faces shared with processor 1 = 168
    Number of processor patches = 1
    Number of processor faces = 168
    Number of boundary faces = 9786

Processor 1
    Number of cells = 4800
    Number of faces shared with processor 0 = 168
    Number of faces shared with processor 2 = 129
    Number of processor patches = 2
    Number of processor faces = 297
    Number of boundary faces = 9799

Processor 2
    Number of cells = 4800
    Number of faces shared with processor 1 = 129
    Number of faces shared with processor 3 = 136
    Number of processor patches = 2
    Number of processor faces = 265
    Number of boundary faces = 9759

Processor 3
    Number of cells = 4800
    Number of faces shared with processor 2 = 136
    Number of processor patches = 1
    Number of processor faces = 136
    Number of boundary faces = 9796

Number of processor faces = 433
Max number of cells = 4800 (0% above average 4800)
Max number of processor patches = 2 (33.3333% above average 1.5)
Max number of faces between processors = 297 (37.1824% above average 216.5)

Time = 0
--> FOAM Warning : 
    From function bool Foam::IOobject::readHeader(Foam::Istream &)
    in file db/IOobject/IOobjectReadHeader.C at line 88
    Reading "/work/05113/danieler/stampede2/CFD-Final-Project/circular-cylinder-3-1/0/log" at line 8
    First token could not be read or is not the keyword 'FoamFile'

Check header is of the form:

/*--------------------------------*- C++ -*----------------------------------*\
  =========                 |
  \\      /  F ield         | OpenFOAM: The Open Source CFD Toolbox
   \\    /   O peration     | Website:  https://openfoam.org
    \\  /    A nd           | Version:  6.0
     \\/     M anipulation  |
\*---------------------------------------------------------------------------*/
FoamFile
{
    version     2.0;
    format      ascii;
    class       IOobject;
    location    "0";
    object      log;
}
// * * * * * * * * * * * * * * * * * * * * * * * * * * * * * * * * * * * * * //


Processor 0: field transfer
Processor 1: field transfer
Processor 2: field transfer
Processor 3: field transfer

End

TACC:  Starting up job 5678044 
TACC:  Starting parallel tasks... 
/*---------------------------------------------------------------------------*\
  =========                 |
  \\      /  F ield         | OpenFOAM: The Open Source CFD Toolbox
   \\    /   O peration     | Website:  https://openfoam.org
    \\  /    A nd           | Version:  6.0
     \\/     M anipulation  |
\*---------------------------------------------------------------------------*/
Build  : 6.0
Exec   : /home1/apps/intel18/impi18_0/OpenFOAM/OpenFOAM-6.0/platforms/linux64IccDPInt32Opt/bin/icoFoam -parallel
Date   : May 10 2020
Time   : 21:30:24
Host   : "c450-002.stampede2.tacc.utexas.edu"
PID    : 142944
I/O    : uncollated
Case   : /work/05113/danieler/stampede2/CFD-Final-Project/circular-cylinder-3-1
nProcs : 4
Slaves : 
3
(
"c450-002.stampede2.tacc.utexas.edu.142945"
"c450-002.stampede2.tacc.utexas.edu.142946"
"c450-002.stampede2.tacc.utexas.edu.142947"
)

Pstream initialized with:
    floatTransfer      : 0
    nProcsSimpleSum    : 0
    commsType          : nonBlocking
    polling iterations : 0
sigFpe : Enabling floating point exception trapping (FOAM_SIGFPE).
fileModificationChecking : Monitoring run-time modified files using timeStampMaster (fileModificationSkew 10)
allowSystemOperations : Allowing user-supplied system call operations

// * * * * * * * * * * * * * * * * * * * * * * * * * * * * * * * * * * * * * //
Create time

Create mesh for time = 0

Reading transportProperties

Reading field p

Reading field U

Reading/calculating face flux field phi


Starting time loop

Time = 0.008

Courant Number mean: 0.0713512 max: 0.754302
smoothSolver:  Solving for Ux, Initial residual = 1, Final residual = 9.54336e-06, No Iterations 18
smoothSolver:  Solving for Uy, Initial residual = 1, Final residual = 6.81363e-06, No Iterations 18
DICPCG:  Solving for p, Initial residual = 1, Final residual = 0.0472292, No Iterations 138
time step continuity errors : sum local = 7.03875e-06, global = -2.97098e-08, cumulative = -2.97098e-08
DICPCG:  Solving for p, Initial residual = 0.252978, Final residual = 8.87371e-07, No Iterations 244
time step continuity errors : sum local = 9.76183e-10, global = 2.22489e-12, cumulative = -2.97076e-08
ExecutionTime = 0.38 s  ClockTime = 0 s

Time = 0.016

Courant Number mean: 0.0742194 max: 0.884362
smoothSolver:  Solving for Ux, Initial residual = 0.218349, Final residual = 8.68473e-06, No Iterations 15
smoothSolver:  Solving for Uy, Initial residual = 0.315919, Final residual = 6.29629e-06, No Iterations 16
DICPCG:  Solving for p, Initial residual = 0.416744, Final residual = 0.0196546, No Iterations 133
time step continuity errors : sum local = 1.74226e-05, global = -8.95697e-08, cumulative = -1.19277e-07
DICPCG:  Solving for p, Initial residual = 0.356422, Final residual = 8.02267e-07, No Iterations 244
time step continuity errors : sum local = 7.43074e-10, global = -3.13797e-12, cumulative = -1.1928e-07
ExecutionTime = 0.53 s  ClockTime = 0 s

Time = 0.024

Courant Number mean: 0.074293 max: 0.981143
smoothSolver:  Solving for Ux, Initial residual = 0.101792, Final residual = 8.43286e-06, No Iterations 13
smoothSolver:  Solving for Uy, Initial residual = 0.132963, Final residual = 8.49971e-06, No Iterations 12
DICPCG:  Solving for p, Initial residual = 0.716142, Final residual = 0.0347852, No Iterations 117
time step continuity errors : sum local = 9.53248e-06, global = 6.81194e-08, cumulative = -5.1161e-08
DICPCG:  Solving for p, Initial residual = 0.500237, Final residual = 9.54631e-07, No Iterations 239
time step continuity errors : sum local = 2.48805e-10, global = -1.34321e-12, cumulative = -5.11624e-08
ExecutionTime = 0.67 s  ClockTime = 1 s

Time = 0.032

Courant Number mean: 0.0742568 max: 0.915641
smoothSolver:  Solving for Ux, Initial residual = 0.034875, Final residual = 7.36842e-06, No Iterations 11
smoothSolver:  Solving for Uy, Initial residual = 0.0404955, Final residual = 8.3536e-06, No Iterations 10
DICPCG:  Solving for p, Initial residual = 0.68274, Final residual = 0.0322043, No Iterations 62
time step continuity errors : sum local = 3.55924e-06, global = 7.67503e-07, cumulative = 7.1634e-07
DICPCG:  Solving for p, Initial residual = 0.634587, Final residual = 9.69939e-07, No Iterations 240
time step continuity errors : sum local = 8.97739e-11, global = 5.67687e-13, cumulative = 7.16341e-07
ExecutionTime = 0.79 s  ClockTime = 1 s

Time = 0.04

Courant Number mean: 0.0742485 max: 0.897857
smoothSolver:  Solving for Ux, Initial residual = 0.0117906, Final residual = 6.91971e-06, No Iterations 11
smoothSolver:  Solving for Uy, Initial residual = 0.0140577, Final residual = 9.17876e-06, No Iterations 10
DICPCG:  Solving for p, Initial residual = 0.761732, Final residual = 0.0371613, No Iterations 111
time step continuity errors : sum local = 2.11005e-06, global = -3.57709e-08, cumulative = 6.8057e-07
DICPCG:  Solving for p, Initial residual = 0.586971, Final residual = 8.75583e-07, No Iterations 246
time step continuity errors : sum local = 5.82582e-11, global = -1.52752e-13, cumulative = 6.8057e-07
ExecutionTime = 0.93 s  ClockTime = 1 s

Time = 0.048

Courant Number mean: 0.0742241 max: 0.875716
smoothSolver:  Solving for Ux, Initial residual = 0.0111847, Final residual = 8.7866e-06, No Iterations 10
smoothSolver:  Solving for Uy, Initial residual = 0.0152175, Final residual = 7.32089e-06, No Iterations 10
DICPCG:  Solving for p, Initial residual = 0.745741, Final residual = 0.0362947, No Iterations 56
time step continuity errors : sum local = 1.58411e-06, global = -8.12302e-09, cumulative = 6.72447e-07
DICPCG:  Solving for p, Initial residual = 0.716153, Final residual = 8.74334e-07, No Iterations 247
time step continuity errors : sum local = 3.89433e-11, global = 2.16642e-13, cumulative = 6.72447e-07
ExecutionTime = 1.05 s  ClockTime = 1 s

Time = 0.056

Courant Number mean: 0.0742054 max: 0.858551
smoothSolver:  Solving for Ux, Initial residual = 0.00786911, Final residual = 7.63591e-06, No Iterations 10
smoothSolver:  Solving for Uy, Initial residual = 0.0113415, Final residual = 6.63639e-06, No Iterations 10
DICPCG:  Solving for p, Initial residual = 0.833102, Final residual = 0.0391512, No Iterations 40
time step continuity errors : sum local = 1.41613e-06, global = -1.17603e-07, cumulative = 5.54844e-07
DICPCG:  Solving for p, Initial residual = 0.778239, Final residual = 9.54245e-07, No Iterations 247
time step continuity errors : sum local = 3.71718e-11, global = 2.82711e-13, cumulative = 5.54844e-07
ExecutionTime = 1.17 s  ClockTime = 1 s

Time = 0.064

Courant Number mean: 0.0741868 max: 0.845006
smoothSolver:  Solving for Ux, Initial residual = 0.00785747, Final residual = 6.43716e-06, No Iterations 10
smoothSolver:  Solving for Uy, Initial residual = 0.0108036, Final residual = 5.96855e-06, No Iterations 10
DICPCG:  Solving for p, Initial residual = 0.790817, Final residual = 0.0386565, No Iterations 43
time step continuity errors : sum local = 1.47001e-06, global = -1.38348e-07, cumulative = 4.16496e-07
DICPCG:  Solving for p, Initial residual = 0.749972, Final residual = 9.74213e-07, No Iterations 249
time step continuity errors : sum local = 3.97157e-11, global = 2.36578e-14, cumulative = 4.16496e-07
ExecutionTime = 1.29 s  ClockTime = 1 s

Time = 0.072

Courant Number mean: 0.0741708 max: 0.831948
smoothSolver:  Solving for Ux, Initial residual = 0.00669199, Final residual = 9.97253e-06, No Iterations 9
smoothSolver:  Solving for Uy, Initial residual = 0.00980343, Final residual = 9.84039e-06, No Iterations 9
DICPCG:  Solving for p, Initial residual = 0.844746, Final residual = 0.0415957, No Iterations 39
time step continuity errors : sum local = 1.50839e-06, global = -9.46915e-08, cumulative = 3.21805e-07
DICPCG:  Solving for p, Initial residual = 0.803576, Final residual = 9.86067e-07, No Iterations 248
time step continuity errors : sum local = 3.80947e-11, global = 1.17847e-13, cumulative = 3.21805e-07
ExecutionTime = 1.41 s  ClockTime = 1 s

Time = 0.08

Courant Number mean: 0.0741558 max: 0.820561
smoothSolver:  Solving for Ux, Initial residual = 0.00637615, Final residual = 8.7655e-06, No Iterations 9
smoothSolver:  Solving for Uy, Initial residual = 0.0093175, Final residual = 8.99075e-06, No Iterations 9
DICPCG:  Solving for p, Initial residual = 0.818332, Final residual = 0.039332, No Iterations 38
time step continuity errors : sum local = 1.46532e-06, global = -5.97335e-08, cumulative = 2.62071e-07
DICPCG:  Solving for p, Initial residual = 0.797859, Final residual = 8.61865e-07, No Iterations 249
time step continuity errors : sum local = 3.34811e-11, global = 3.91863e-14, cumulative = 2.62071e-07
ExecutionTime = 1.52 s  ClockTime = 1 s

Time = 0.088

Courant Number mean: 0.0741427 max: 0.811312
smoothSolver:  Solving for Ux, Initial residual = 0.00553353, Final residual = 7.91211e-06, No Iterations 9
smoothSolver:  Solving for Uy, Initial residual = 0.00859978, Final residual = 8.29323e-06, No Iterations 9
DICPCG:  Solving for p, Initial residual = 0.828505, Final residual = 0.0388958, No Iterations 36
time step continuity errors : sum local = 1.38334e-06, global = -4.95775e-08, cumulative = 2.12494e-07
DICPCG:  Solving for p, Initial residual = 0.821475, Final residual = 9.47462e-07, No Iterations 246
time step continuity errors : sum local = 3.40151e-11, global = 2.87892e-13, cumulative = 2.12494e-07
ExecutionTime = 1.65 s  ClockTime = 2 s

Time = 0.096

Courant Number mean: 0.0741306 max: 0.802122
smoothSolver:  Solving for Ux, Initial residual = 0.0051225, Final residual = 7.17456e-06, No Iterations 9
smoothSolver:  Solving for Uy, Initial residual = 0.00827074, Final residual = 7.68001e-06, No Iterations 9
DICPCG:  Solving for p, Initial residual = 0.794187, Final residual = 0.038313, No Iterations 36
time step continuity errors : sum local = 1.33518e-06, global = -2.96611e-08, cumulative = 1.82833e-07
DICPCG:  Solving for p, Initial residual = 0.808821, Final residual = 9.75068e-07, No Iterations 248
time step continuity errors : sum local = 3.34598e-11, global = -1.0415e-13, cumulative = 1.82833e-07
ExecutionTime = 1.76 s  ClockTime = 2 s

Time = 0.104

Courant Number mean: 0.0741199 max: 0.793271
smoothSolver:  Solving for Ux, Initial residual = 0.00451045, Final residual = 6.6546e-06, No Iterations 9
smoothSolver:  Solving for Uy, Initial residual = 0.00780864, Final residual = 7.2546e-06, No Iterations 9
DICPCG:  Solving for p, Initial residual = 0.774584, Final residual = 0.0368469, No Iterations 39
time step continuity errors : sum local = 1.21472e-06, global = -3.04242e-08, cumulative = 1.52409e-07
DICPCG:  Solving for p, Initial residual = 0.806285, Final residual = 9.84048e-07, No Iterations 248
time step continuity errors : sum local = 3.0987e-11, global = -2.37413e-14, cumulative = 1.52409e-07
ExecutionTime = 1.88 s  ClockTime = 2 s

Time = 0.112

Courant Number mean: 0.0741101 max: 0.785959
smoothSolver:  Solving for Ux, Initial residual = 0.00427694, Final residual = 6.05038e-06, No Iterations 9
smoothSolver:  Solving for Uy, Initial residual = 0.00767112, Final residual = 6.73583e-06, No Iterations 9
DICPCG:  Solving for p, Initial residual = 0.73921, Final residual = 0.0328976, No Iterations 43
time step continuity errors : sum local = 1.07512e-06, global = 1.19e-08, cumulative = 1.64309e-07
DICPCG:  Solving for p, Initial residual = 0.793652, Final residual = 9.36133e-07, No Iterations 238
time step continuity errors : sum local = 2.86665e-11, global = 1.10851e-13, cumulative = 1.64309e-07
ExecutionTime = 1.99 s  ClockTime = 2 s

Time = 0.12

Courant Number mean: 0.0741014 max: 0.779252
smoothSolver:  Solving for Ux, Initial residual = 0.00401343, Final residual = 5.6516e-06, No Iterations 9
smoothSolver:  Solving for Uy, Initial residual = 0.00749657, Final residual = 6.41241e-06, No Iterations 9
DICPCG:  Solving for p, Initial residual = 0.729693, Final residual = 0.0357376, No Iterations 44
time step continuity errors : sum local = 1.1719e-06, global = 5.80996e-08, cumulative = 2.22408e-07
DICPCG:  Solving for p, Initial residual = 0.803491, Final residual = 9.19488e-07, No Iterations 245
time step continuity errors : sum local = 2.82727e-11, global = 9.43396e-14, cumulative = 2.22408e-07
ExecutionTime = 2.11 s  ClockTime = 2 s

Time = 0.128

Courant Number mean: 0.0740937 max: 0.772671
smoothSolver:  Solving for Ux, Initial residual = 0.00401183, Final residual = 9.39243e-06, No Iterations 8
smoothSolver:  Solving for Uy, Initial residual = 0.00757557, Final residual = 6.23514e-06, No Iterations 9
DICPCG:  Solving for p, Initial residual = 0.731896, Final residual = 0.0361038, No Iterations 45
time step continuity errors : sum local = 1.25592e-06, global = 9.72537e-08, cumulative = 3.19662e-07
DICPCG:  Solving for p, Initial residual = 0.811193, Final residual = 9.21729e-07, No Iterations 245
time step continuity errors : sum local = 3.02631e-11, global = -2.74553e-14, cumulative = 3.19662e-07
ExecutionTime = 2.22 s  ClockTime = 2 s

Time = 0.136

Courant Number mean: 0.0740872 max: 0.766422
smoothSolver:  Solving for Ux, Initial residual = 0.00396839, Final residual = 8.8519e-06, No Iterations 8
smoothSolver:  Solving for Uy, Initial residual = 0.00770336, Final residual = 6.09524e-06, No Iterations 9
DICPCG:  Solving for p, Initial residual = 0.755788, Final residual = 0.0368222, No Iterations 46
time step continuity errors : sum local = 1.36596e-06, global = 1.19418e-07, cumulative = 4.3908e-07
DICPCG:  Solving for p, Initial residual = 0.817028, Final residual = 9.23947e-07, No Iterations 246
time step continuity errors : sum local = 3.31984e-11, global = -5.08062e-13, cumulative = 4.39079e-07
ExecutionTime = 2.33 s  ClockTime = 2 s

Time = 0.144

Courant Number mean: 0.0740817 max: 0.760345
smoothSolver:  Solving for Ux, Initial residual = 0.00393569, Final residual = 8.30237e-06, No Iterations 8
smoothSolver:  Solving for Uy, Initial residual = 0.00787802, Final residual = 5.90987e-06, No Iterations 9
DICPCG:  Solving for p, Initial residual = 0.770119, Final residual = 0.0383465, No Iterations 45
time step continuity errors : sum local = 1.51598e-06, global = 1.31651e-07, cumulative = 5.7073e-07
DICPCG:  Solving for p, Initial residual = 0.82798, Final residual = 8.8768e-07, No Iterations 247
time step continuity errors : sum local = 3.39134e-11, global = -3.38824e-13, cumulative = 5.70729e-07
ExecutionTime = 2.45 s  ClockTime = 2 s

Time = 0.152

Courant Number mean: 0.0740773 max: 0.755382
smoothSolver:  Solving for Ux, Initial residual = 0.00382636, Final residual = 7.79614e-06, No Iterations 8
smoothSolver:  Solving for Uy, Initial residual = 0.00786726, Final residual = 5.7551e-06, No Iterations 9
DICPCG:  Solving for p, Initial residual = 0.784692, Final residual = 0.0378939, No Iterations 45
time step continuity errors : sum local = 1.54116e-06, global = 1.2974e-07, cumulative = 7.00469e-07
DICPCG:  Solving for p, Initial residual = 0.82806, Final residual = 8.8518e-07, No Iterations 247
time step continuity errors : sum local = 3.50824e-11, global = -2.90432e-13, cumulative = 7.00469e-07
ExecutionTime = 2.57 s  ClockTime = 2 s

Time = 0.16

Courant Number mean: 0.0740741 max: 0.750741
smoothSolver:  Solving for Ux, Initial residual = 0.0036675, Final residual = 7.29242e-06, No Iterations 8
smoothSolver:  Solving for Uy, Initial residual = 0.00767811, Final residual = 5.53661e-06, No Iterations 9
DICPCG:  Solving for p, Initial residual = 0.787033, Final residual = 0.0393354, No Iterations 44
time step continuity errors : sum local = 1.59803e-06, global = 1.21198e-07, cumulative = 8.21667e-07
DICPCG:  Solving for p, Initial residual = 0.825747, Final residual = 9.85588e-07, No Iterations 241
time step continuity errors : sum local = 3.89568e-11, global = -7.06796e-13, cumulative = 8.21666e-07
ExecutionTime = 2.68 s  ClockTime = 3 s

Time = 0.168

Courant Number mean: 0.0740716 max: 0.746282
smoothSolver:  Solving for Ux, Initial residual = 0.00345362, Final residual = 6.81932e-06, No Iterations 8
smoothSolver:  Solving for Uy, Initial residual = 0.0073358, Final residual = 9.72318e-06, No Iterations 8
DICPCG:  Solving for p, Initial residual = 0.789407, Final residual = 0.0381165, No Iterations 44
time step continuity errors : sum local = 1.50232e-06, global = 1.0291e-07, cumulative = 9.24576e-07
DICPCG:  Solving for p, Initial residual = 0.818233, Final residual = 8.77599e-07, No Iterations 237
time step continuity errors : sum local = 3.37942e-11, global = 5.21839e-13, cumulative = 9.24577e-07
ExecutionTime = 2.8 s  ClockTime = 3 s

Time = 0.176

Courant Number mean: 0.0740697 max: 0.742101
smoothSolver:  Solving for Ux, Initial residual = 0.00321159, Final residual = 6.37756e-06, No Iterations 8
smoothSolver:  Solving for Uy, Initial residual = 0.00689293, Final residual = 9.24642e-06, No Iterations 8
DICPCG:  Solving for p, Initial residual = 0.782876, Final residual = 0.0364781, No Iterations 44
time step continuity errors : sum local = 1.3596e-06, global = 8.16061e-08, cumulative = 1.00618e-06
DICPCG:  Solving for p, Initial residual = 0.80539, Final residual = 9.37417e-07, No Iterations 246
time step continuity errors : sum local = 3.41495e-11, global = -1.12219e-13, cumulative = 1.00618e-06
ExecutionTime = 2.91 s  ClockTime = 3 s

Time = 0.184

Courant Number mean: 0.0740684 max: 0.738087
smoothSolver:  Solving for Ux, Initial residual = 0.00296559, Final residual = 5.96964e-06, No Iterations 8
smoothSolver:  Solving for Uy, Initial residual = 0.0064148, Final residual = 8.75987e-06, No Iterations 8
DICPCG:  Solving for p, Initial residual = 0.772208, Final residual = 0.0372918, No Iterations 43
time step continuity errors : sum local = 1.28918e-06, global = 6.18124e-08, cumulative = 1.068e-06
DICPCG:  Solving for p, Initial residual = 0.788091, Final residual = 8.89611e-07, No Iterations 246
time step continuity errors : sum local = 3.01153e-11, global = 2.5826e-14, cumulative = 1.068e-06
ExecutionTime = 3.02 s  ClockTime = 3 s

Time = 0.192

Courant Number mean: 0.0740675 max: 0.734231
smoothSolver:  Solving for Ux, Initial residual = 0.00273799, Final residual = 5.58654e-06, No Iterations 8
smoothSolver:  Solving for Uy, Initial residual = 0.00595584, Final residual = 8.30469e-06, No Iterations 8
DICPCG:  Solving for p, Initial residual = 0.75679, Final residual = 0.037089, No Iterations 43
time step continuity errors : sum local = 1.17869e-06, global = 4.31853e-08, cumulative = 1.11118e-06
DICPCG:  Solving for p, Initial residual = 0.768857, Final residual = 8.87299e-07, No Iterations 247
time step continuity errors : sum local = 2.77225e-11, global = 2.27578e-13, cumulative = 1.11118e-06
ExecutionTime = 3.13 s  ClockTime = 3 s

Time = 0.2

Courant Number mean: 0.0740669 max: 0.730633
smoothSolver:  Solving for Ux, Initial residual = 0.00253113, Final residual = 9.50433e-06, No Iterations 7
smoothSolver:  Solving for Uy, Initial residual = 0.00554254, Final residual = 7.84056e-06, No Iterations 8
DICPCG:  Solving for p, Initial residual = 0.734777, Final residual = 0.036736, No Iterations 43
time step continuity errors : sum local = 1.06613e-06, global = 2.90379e-08, cumulative = 1.14022e-06
DICPCG:  Solving for p, Initial residual = 0.743662, Final residual = 9.55434e-07, No Iterations 247
time step continuity errors : sum local = 2.73296e-11, global = 2.04825e-13, cumulative = 1.14022e-06
ExecutionTime = 3.25 s  ClockTime = 3 s

Time = 0.208

Courant Number mean: 0.0740666 max: 0.727607
smoothSolver:  Solving for Ux, Initial residual = 0.00235808, Final residual = 8.93193e-06, No Iterations 7
smoothSolver:  Solving for Uy, Initial residual = 0.00521441, Final residual = 7.42069e-06, No Iterations 8
DICPCG:  Solving for p, Initial residual = 0.708924, Final residual = 0.0317737, No Iterations 44
time step continuity errors : sum local = 8.44439e-07, global = 2.20886e-08, cumulative = 1.16231e-06
DICPCG:  Solving for p, Initial residual = 0.714892, Final residual = 9.55898e-07, No Iterations 247
time step continuity errors : sum local = 2.49495e-11, global = 1.10428e-13, cumulative = 1.16231e-06
ExecutionTime = 3.36 s  ClockTime = 3 s

Time = 0.216

Courant Number mean: 0.0740666 max: 0.724644
smoothSolver:  Solving for Ux, Initial residual = 0.00221859, Final residual = 8.39777e-06, No Iterations 7
smoothSolver:  Solving for Uy, Initial residual = 0.00496973, Final residual = 7.04204e-06, No Iterations 8
DICPCG:  Solving for p, Initial residual = 0.682244, Final residual = 0.0308171, No Iterations 44
time step continuity errors : sum local = 7.55456e-07, global = 2.14517e-08, cumulative = 1.18376e-06
DICPCG:  Solving for p, Initial residual = 0.693396, Final residual = 9.1608e-07, No Iterations 247
time step continuity errors : sum local = 2.20693e-11, global = 7.17183e-14, cumulative = 1.18376e-06
ExecutionTime = 3.48 s  ClockTime = 3 s

Time = 0.224

Courant Number mean: 0.0740667 max: 0.721839
smoothSolver:  Solving for Ux, Initial residual = 0.00210573, Final residual = 7.94361e-06, No Iterations 7
smoothSolver:  Solving for Uy, Initial residual = 0.0047683, Final residual = 6.73144e-06, No Iterations 8
DICPCG:  Solving for p, Initial residual = 0.657555, Final residual = 0.0295965, No Iterations 44
time step continuity errors : sum local = 6.82621e-07, global = 2.59541e-08, cumulative = 1.20971e-06
DICPCG:  Solving for p, Initial residual = 0.675145, Final residual = 8.80731e-07, No Iterations 247
time step continuity errors : sum local = 1.98966e-11, global = 8.93789e-14, cumulative = 1.20971e-06
ExecutionTime = 3.6 s  ClockTime = 4 s

Time = 0.232

Courant Number mean: 0.074067 max: 0.719092
smoothSolver:  Solving for Ux, Initial residual = 0.00200999, Final residual = 7.55249e-06, No Iterations 7
smoothSolver:  Solving for Uy, Initial residual = 0.00458169, Final residual = 6.46365e-06, No Iterations 8
DICPCG:  Solving for p, Initial residual = 0.638064, Final residual = 0.029172, No Iterations 44
time step continuity errors : sum local = 6.4531e-07, global = 3.34864e-08, cumulative = 1.2432e-06
DICPCG:  Solving for p, Initial residual = 0.661449, Final residual = 9.54386e-07, No Iterations 246
time step continuity errors : sum local = 2.05787e-11, global = 1.64481e-13, cumulative = 1.2432e-06
ExecutionTime = 3.71 s  ClockTime = 4 s

Time = 0.24

Courant Number mean: 0.0740675 max: 0.716388
smoothSolver:  Solving for Ux, Initial residual = 0.00192589, Final residual = 7.21629e-06, No Iterations 7
smoothSolver:  Solving for Uy, Initial residual = 0.00440344, Final residual = 6.23832e-06, No Iterations 8
DICPCG:  Solving for p, Initial residual = 0.623867, Final residual = 0.0281228, No Iterations 44
time step continuity errors : sum local = 6.00962e-07, global = 4.17551e-08, cumulative = 1.28496e-06
DICPCG:  Solving for p, Initial residual = 0.652588, Final residual = 9.27635e-07, No Iterations 240
time step continuity errors : sum local = 1.91789e-11, global = 8.56053e-14, cumulative = 1.28496e-06
ExecutionTime = 3.83 s  ClockTime = 4 s

Time = 0.248

Courant Number mean: 0.0740682 max: 0.713731
smoothSolver:  Solving for Ux, Initial residual = 0.00184731, Final residual = 6.92392e-06, No Iterations 7
smoothSolver:  Solving for Uy, Initial residual = 0.00423727, Final residual = 6.04543e-06, No Iterations 8
DICPCG:  Solving for p, Initial residual = 0.612469, Final residual = 0.0305122, No Iterations 43
time step continuity errors : sum local = 6.28852e-07, global = 4.80115e-08, cumulative = 1.33297e-06
DICPCG:  Solving for p, Initial residual = 0.645065, Final residual = 9.5472e-07, No Iterations 244
time step continuity errors : sum local = 1.89188e-11, global = -1.35761e-13, cumulative = 1.33297e-06
ExecutionTime = 4.07 s  ClockTime = 4 s

Time = 0.256

Courant Number mean: 0.0740693 max: 0.711123
smoothSolver:  Solving for Ux, Initial residual = 0.00177214, Final residual = 6.64795e-06, No Iterations 7
smoothSolver:  Solving for Uy, Initial residual = 0.00407766, Final residual = 5.872e-06, No Iterations 8
DICPCG:  Solving for p, Initial residual = 0.601052, Final residual = 0.0290071, No Iterations 43
time step continuity errors : sum local = 5.75706e-07, global = 5.12121e-08, cumulative = 1.38418e-06
DICPCG:  Solving for p, Initial residual = 0.635391, Final residual = 9.9999e-07, No Iterations 240
time step continuity errors : sum local = 1.89192e-11, global = -1.48402e-13, cumulative = 1.38418e-06
ExecutionTime = 4.19 s  ClockTime = 4 s

Time = 0.264

Courant Number mean: 0.0740706 max: 0.708647
smoothSolver:  Solving for Ux, Initial residual = 0.00169461, Final residual = 6.3904e-06, No Iterations 7
smoothSolver:  Solving for Uy, Initial residual = 0.00390416, Final residual = 5.71026e-06, No Iterations 8
DICPCG:  Solving for p, Initial residual = 0.579984, Final residual = 0.0268416, No Iterations 43
time step continuity errors : sum local = 5.069e-07, global = 4.92343e-08, cumulative = 1.43341e-06
DICPCG:  Solving for p, Initial residual = 0.613226, Final residual = 9.76273e-07, No Iterations 236
time step continuity errors : sum local = 1.74366e-11, global = -1.27012e-13, cumulative = 1.43341e-06
ExecutionTime = 4.3 s  ClockTime = 4 s

Time = 0.272

Courant Number mean: 0.0740721 max: 0.706245
smoothSolver:  Solving for Ux, Initial residual = 0.00161439, Final residual = 6.13415e-06, No Iterations 7
smoothSolver:  Solving for Uy, Initial residual = 0.00371697, Final residual = 5.55278e-06, No Iterations 8
DICPCG:  Solving for p, Initial residual = 0.550097, Final residual = 0.0254635, No Iterations 41
time step continuity errors : sum local = 4.51853e-07, global = 3.87511e-08, cumulative = 1.47216e-06
DICPCG:  Solving for p, Initial residual = 0.57887, Final residual = 9.45268e-07, No Iterations 236
time step continuity errors : sum local = 1.56787e-11, global = -7.0544e-14, cumulative = 1.47216e-06
ExecutionTime = 4.41 s  ClockTime = 4 s

Time = 0.28

Courant Number mean: 0.0740738 max: 0.704025
smoothSolver:  Solving for Ux, Initial residual = 0.00153266, Final residual = 5.87106e-06, No Iterations 7
smoothSolver:  Solving for Uy, Initial residual = 0.00352008, Final residual = 9.8926e-06, No Iterations 7
DICPCG:  Solving for p, Initial residual = 0.513838, Final residual = 0.0246043, No Iterations 38
time step continuity errors : sum local = 4.04939e-07, global = 1.7759e-08, cumulative = 1.48992e-06
DICPCG:  Solving for p, Initial residual = 0.527271, Final residual = 9.7845e-07, No Iterations 233
time step continuity errors : sum local = 1.53008e-11, global = 5.07366e-14, cumulative = 1.48992e-06
ExecutionTime = 4.53 s  ClockTime = 4 s

Time = 0.288

Courant Number mean: 0.0740759 max: 0.702038
smoothSolver:  Solving for Ux, Initial residual = 0.00145429, Final residual = 5.63825e-06, No Iterations 7
smoothSolver:  Solving for Uy, Initial residual = 0.00331587, Final residual = 9.55475e-06, No Iterations 7
DICPCG:  Solving for p, Initial residual = 0.466013, Final residual = 0.0231477, No Iterations 32
time step continuity errors : sum local = 3.51085e-07, global = 7.26919e-09, cumulative = 1.49719e-06
DICPCG:  Solving for p, Initial residual = 0.461729, Final residual = 9.12199e-07, No Iterations 234
time step continuity errors : sum local = 1.35155e-11, global = -1.81729e-15, cumulative = 1.49719e-06
ExecutionTime = 4.64 s  ClockTime = 5 s

Time = 0.296

Courant Number mean: 0.0740781 max: 0.700097
smoothSolver:  Solving for Ux, Initial residual = 0.00138641, Final residual = 9.97115e-06, No Iterations 6
smoothSolver:  Solving for Uy, Initial residual = 0.00314216, Final residual = 9.21747e-06, No Iterations 7
DICPCG:  Solving for p, Initial residual = 0.417036, Final residual = 0.0188932, No Iterations 32
time step continuity errors : sum local = 2.64281e-07, global = 3.96004e-09, cumulative = 1.50115e-06
DICPCG:  Solving for p, Initial residual = 0.405182, Final residual = 9.89519e-07, No Iterations 236
time step continuity errors : sum local = 1.39327e-11, global = -5.98935e-14, cumulative = 1.50115e-06
ExecutionTime = 4.74 s  ClockTime = 5 s

Time = 0.304

Courant Number mean: 0.0740807 max: 0.698216
smoothSolver:  Solving for Ux, Initial residual = 0.00132513, Final residual = 9.62848e-06, No Iterations 6
smoothSolver:  Solving for Uy, Initial residual = 0.00307506, Final residual = 9.07467e-06, No Iterations 7
DICPCG:  Solving for p, Initial residual = 0.37636, Final residual = 0.0184164, No Iterations 34
time step continuity errors : sum local = 2.44821e-07, global = 7.92688e-10, cumulative = 1.50194e-06
DICPCG:  Solving for p, Initial residual = 0.3666, Final residual = 9.51698e-07, No Iterations 236
time step continuity errors : sum local = 1.29334e-11, global = -4.48522e-14, cumulative = 1.50194e-06
ExecutionTime = 4.85 s  ClockTime = 5 s

Time = 0.312

Courant Number mean: 0.0740833 max: 0.69638
smoothSolver:  Solving for Ux, Initial residual = 0.0012991, Final residual = 9.27425e-06, No Iterations 6
smoothSolver:  Solving for Uy, Initial residual = 0.00305911, Final residual = 8.90368e-06, No Iterations 7
DICPCG:  Solving for p, Initial residual = 0.364488, Final residual = 0.0161889, No Iterations 44
time step continuity errors : sum local = 2.12614e-07, global = -9.72362e-09, cumulative = 1.49222e-06
DICPCG:  Solving for p, Initial residual = 0.355147, Final residual = 8.87391e-07, No Iterations 228
time step continuity errors : sum local = 1.21665e-11, global = -1.35526e-13, cumulative = 1.49222e-06
ExecutionTime = 4.97 s  ClockTime = 5 s

Time = 0.32

Courant Number mean: 0.0740861 max: 0.694588
smoothSolver:  Solving for Ux, Initial residual = 0.00127696, Final residual = 9.02389e-06, No Iterations 6
smoothSolver:  Solving for Uy, Initial residual = 0.0030599, Final residual = 8.75943e-06, No Iterations 7
DICPCG:  Solving for p, Initial residual = 0.373459, Final residual = 0.0177333, No Iterations 45
time step continuity errors : sum local = 2.35939e-07, global = -1.82401e-08, cumulative = 1.47398e-06
DICPCG:  Solving for p, Initial residual = 0.370108, Final residual = 9.92327e-07, No Iterations 231
time step continuity errors : sum local = 1.39146e-11, global = 2.05437e-13, cumulative = 1.47398e-06
ExecutionTime = 5.08 s  ClockTime = 5 s

Time = 0.328

Courant Number mean: 0.0740891 max: 0.692833
smoothSolver:  Solving for Ux, Initial residual = 0.00127221, Final residual = 8.75599e-06, No Iterations 6
smoothSolver:  Solving for Uy, Initial residual = 0.00307405, Final residual = 8.43711e-06, No Iterations 7
DICPCG:  Solving for p, Initial residual = 0.402733, Final residual = 0.0196141, No Iterations 46
time step continuity errors : sum local = 2.68536e-07, global = -2.23339e-08, cumulative = 1.45165e-06
DICPCG:  Solving for p, Initial residual = 0.39872, Final residual = 9.53379e-07, No Iterations 236
time step continuity errors : sum local = 1.3802e-11, global = 1.93722e-13, cumulative = 1.45165e-06
ExecutionTime = 5.19 s  ClockTime = 5 s

Time = 0.336

Courant Number mean: 0.0740922 max: 0.691109
smoothSolver:  Solving for Ux, Initial residual = 0.00125782, Final residual = 8.51824e-06, No Iterations 6
smoothSolver:  Solving for Uy, Initial residual = 0.00308219, Final residual = 8.19117e-06, No Iterations 7
DICPCG:  Solving for p, Initial residual = 0.428104, Final residual = 0.0207804, No Iterations 46
time step continuity errors : sum local = 2.93549e-07, global = -2.45535e-08, cumulative = 1.42709e-06
DICPCG:  Solving for p, Initial residual = 0.423675, Final residual = 9.26163e-07, No Iterations 235
time step continuity errors : sum local = 1.3762e-11, global = 1.88437e-13, cumulative = 1.42709e-06
ExecutionTime = 5.31 s  ClockTime = 5 s

Time = 0.344

Courant Number mean: 0.0740954 max: 0.68947
smoothSolver:  Solving for Ux, Initial residual = 0.00124247, Final residual = 8.28525e-06, No Iterations 6
smoothSolver:  Solving for Uy, Initial residual = 0.00307127, Final residual = 7.94204e-06, No Iterations 7
DICPCG:  Solving for p, Initial residual = 0.443392, Final residual = 0.0216972, No Iterations 45
time step continuity errors : sum local = 3.12026e-07, global = -2.32483e-08, cumulative = 1.40385e-06
DICPCG:  Solving for p, Initial residual = 0.43404, Final residual = 9.58137e-07, No Iterations 233
time step continuity errors : sum local = 1.44646e-11, global = 1.37497e-13, cumulative = 1.40385e-06
ExecutionTime = 5.41 s  ClockTime = 5 s

Time = 0.352

Courant Number mean: 0.0740988 max: 0.687865
smoothSolver:  Solving for Ux, Initial residual = 0.00121922, Final residual = 8.07987e-06, No Iterations 6
smoothSolver:  Solving for Uy, Initial residual = 0.00303859, Final residual = 7.73871e-06, No Iterations 7
DICPCG:  Solving for p, Initial residual = 0.447314, Final residual = 0.0211854, No Iterations 45
time step continuity errors : sum local = 3.06413e-07, global = -2.10703e-08, cumulative = 1.38278e-06
DICPCG:  Solving for p, Initial residual = 0.435913, Final residual = 9.4124e-07, No Iterations 232
time step continuity errors : sum local = 1.42416e-11, global = -2.42395e-15, cumulative = 1.38278e-06
ExecutionTime = 5.53 s  ClockTime = 5 s

Time = 0.36

Courant Number mean: 0.0741023 max: 0.686284
smoothSolver:  Solving for Ux, Initial residual = 0.00119362, Final residual = 7.87184e-06, No Iterations 6
smoothSolver:  Solving for Uy, Initial residual = 0.00299294, Final residual = 7.54114e-06, No Iterations 7
DICPCG:  Solving for p, Initial residual = 0.439426, Final residual = 0.0217414, No Iterations 44
time step continuity errors : sum local = 3.12516e-07, global = -1.76524e-08, cumulative = 1.36512e-06
DICPCG:  Solving for p, Initial residual = 0.426255, Final residual = 9.53157e-07, No Iterations 233
time step continuity errors : sum local = 1.43138e-11, global = -4.90797e-14, cumulative = 1.36512e-06
ExecutionTime = 5.64 s  ClockTime = 6 s

Time = 0.368

Courant Number mean: 0.074106 max: 0.684728
smoothSolver:  Solving for Ux, Initial residual = 0.00116496, Final residual = 7.67811e-06, No Iterations 6
smoothSolver:  Solving for Uy, Initial residual = 0.00293352, Final residual = 7.37118e-06, No Iterations 7
DICPCG:  Solving for p, Initial residual = 0.425256, Final residual = 0.0210138, No Iterations 44
time step continuity errors : sum local = 2.9815e-07, global = -1.41436e-08, cumulative = 1.35098e-06
DICPCG:  Solving for p, Initial residual = 0.411646, Final residual = 9.41859e-07, No Iterations 237
time step continuity errors : sum local = 1.39235e-11, global = 3.3439e-14, cumulative = 1.35098e-06
ExecutionTime = 5.74 s  ClockTime = 6 s

Time = 0.376

Courant Number mean: 0.07411 max: 0.683198
smoothSolver:  Solving for Ux, Initial residual = 0.00113826, Final residual = 7.4738e-06, No Iterations 6
smoothSolver:  Solving for Uy, Initial residual = 0.00287522, Final residual = 7.21381e-06, No Iterations 7
DICPCG:  Solving for p, Initial residual = 0.403954, Final residual = 0.0195737, No Iterations 44
time step continuity errors : sum local = 2.72558e-07, global = -1.0897e-08, cumulative = 1.34008e-06
DICPCG:  Solving for p, Initial residual = 0.390054, Final residual = 9.62287e-07, No Iterations 238
time step continuity errors : sum local = 1.39366e-11, global = -8.68969e-14, cumulative = 1.34008e-06
ExecutionTime = 5.85 s  ClockTime = 6 s

Time = 0.384

Courant Number mean: 0.0741141 max: 0.681787
smoothSolver:  Solving for Ux, Initial residual = 0.00111194, Final residual = 7.27025e-06, No Iterations 6
smoothSolver:  Solving for Uy, Initial residual = 0.00281885, Final residual = 7.06108e-06, No Iterations 7
DICPCG:  Solving for p, Initial residual = 0.379787, Final residual = 0.0186696, No Iterations 44
time step continuity errors : sum local = 2.54849e-07, global = -8.80611e-09, cumulative = 1.33128e-06
DICPCG:  Solving for p, Initial residual = 0.367855, Final residual = 9.69006e-07, No Iterations 237
time step continuity errors : sum local = 1.37151e-11, global = -1.24044e-13, cumulative = 1.33128e-06
ExecutionTime = 5.96 s  ClockTime = 6 s

Time = 0.392

Courant Number mean: 0.0741184 max: 0.680465
smoothSolver:  Solving for Ux, Initial residual = 0.00108846, Final residual = 7.05737e-06, No Iterations 6
smoothSolver:  Solving for Uy, Initial residual = 0.00276856, Final residual = 6.9118e-06, No Iterations 7
DICPCG:  Solving for p, Initial residual = 0.357167, Final residual = 0.017542, No Iterations 44
time step continuity errors : sum local = 2.34851e-07, global = -7.79069e-09, cumulative = 1.32349e-06
DICPCG:  Solving for p, Initial residual = 0.34748, Final residual = 9.30212e-07, No Iterations 236
time step continuity errors : sum local = 1.28701e-11, global = -1.10918e-13, cumulative = 1.32349e-06
ExecutionTime = 6.08 s  ClockTime = 6 s

Time = 0.4

Courant Number mean: 0.074123 max: 0.679168
smoothSolver:  Solving for Ux, Initial residual = 0.00106446, Final residual = 6.84127e-06, No Iterations 6
smoothSolver:  Solving for Uy, Initial residual = 0.00272228, Final residual = 6.76006e-06, No Iterations 7
DICPCG:  Solving for p, Initial residual = 0.338653, Final residual = 0.015133, No Iterations 45
time step continuity errors : sum local = 1.99518e-07, global = -8.26462e-09, cumulative = 1.31522e-06
DICPCG:  Solving for p, Initial residual = 0.330861, Final residual = 8.96378e-07, No Iterations 235
time step continuity errors : sum local = 1.21496e-11, global = -7.4024e-14, cumulative = 1.31522e-06
ExecutionTime = 6.18 s  ClockTime = 6 s

Time = 0.408

Courant Number mean: 0.0741278 max: 0.677899
smoothSolver:  Solving for Ux, Initial residual = 0.00104127, Final residual = 6.61954e-06, No Iterations 6
smoothSolver:  Solving for Uy, Initial residual = 0.00268227, Final residual = 6.59396e-06, No Iterations 7
DICPCG:  Solving for p, Initial residual = 0.325248, Final residual = 0.0160426, No Iterations 44
time step continuity errors : sum local = 2.09748e-07, global = -9.2128e-09, cumulative = 1.30601e-06
DICPCG:  Solving for p, Initial residual = 0.322445, Final residual = 8.26664e-07, No Iterations 234
time step continuity errors : sum local = 1.10667e-11, global = 9.48614e-16, cumulative = 1.30601e-06
ExecutionTime = 6.29 s  ClockTime = 6 s

Time = 0.416

Courant Number mean: 0.0741328 max: 0.67666
smoothSolver:  Solving for Ux, Initial residual = 0.00101804, Final residual = 6.40081e-06, No Iterations 6
smoothSolver:  Solving for Uy, Initial residual = 0.0026414, Final residual = 6.43113e-06, No Iterations 7
DICPCG:  Solving for p, Initial residual = 0.317526, Final residual = 0.0157512, No Iterations 44
time step continuity errors : sum local = 2.05206e-07, global = -1.09504e-08, cumulative = 1.29506e-06
DICPCG:  Solving for p, Initial residual = 0.317947, Final residual = 8.97535e-07, No Iterations 232
time step continuity errors : sum local = 1.18819e-11, global = 7.56379e-14, cumulative = 1.29506e-06
ExecutionTime = 6.4 s  ClockTime = 6 s

Time = 0.424

Courant Number mean: 0.074138 max: 0.675451
smoothSolver:  Solving for Ux, Initial residual = 0.000996993, Final residual = 6.18337e-06, No Iterations 6
smoothSolver:  Solving for Uy, Initial residual = 0.00260362, Final residual = 6.25976e-06, No Iterations 7
DICPCG:  Solving for p, Initial residual = 0.30928, Final residual = 0.0151451, No Iterations 44
time step continuity errors : sum local = 1.96349e-07, global = -1.24954e-08, cumulative = 1.28256e-06
DICPCG:  Solving for p, Initial residual = 0.310954, Final residual = 9.64332e-07, No Iterations 227
time step continuity errors : sum local = 1.26233e-11, global = -1.87382e-13, cumulative = 1.28256e-06
ExecutionTime = 6.51 s  ClockTime = 6 s

Time = 0.432

Courant Number mean: 0.0741435 max: 0.674274
smoothSolver:  Solving for Ux, Initial residual = 0.000976303, Final residual = 5.97635e-06, No Iterations 6
smoothSolver:  Solving for Uy, Initial residual = 0.00256678, Final residual = 6.0814e-06, No Iterations 7
DICPCG:  Solving for p, Initial residual = 0.299785, Final residual = 0.0145802, No Iterations 44
time step continuity errors : sum local = 1.87735e-07, global = -1.3605e-08, cumulative = 1.26896e-06
DICPCG:  Solving for p, Initial residual = 0.302676, Final residual = 9.23375e-07, No Iterations 233
time step continuity errors : sum local = 1.19209e-11, global = 8.72619e-14, cumulative = 1.26896e-06
ExecutionTime = 6.62 s  ClockTime = 7 s

Time = 0.44

Courant Number mean: 0.0741491 max: 0.673126
smoothSolver:  Solving for Ux, Initial residual = 0.00095639, Final residual = 5.77921e-06, No Iterations 6
smoothSolver:  Solving for Uy, Initial residual = 0.00253096, Final residual = 5.90546e-06, No Iterations 7
DICPCG:  Solving for p, Initial residual = 0.287774, Final residual = 0.0136426, No Iterations 44
time step continuity errors : sum local = 1.73854e-07, global = -1.38482e-08, cumulative = 1.25511e-06
DICPCG:  Solving for p, Initial residual = 0.290858, Final residual = 9.18619e-07, No Iterations 236
time step continuity errors : sum local = 1.16623e-11, global = 1.21665e-13, cumulative = 1.25511e-06
ExecutionTime = 6.74 s  ClockTime = 7 s

Time = 0.448

Courant Number mean: 0.0741549 max: 0.672009
smoothSolver:  Solving for Ux, Initial residual = 0.000936182, Final residual = 5.59733e-06, No Iterations 6
smoothSolver:  Solving for Uy, Initial residual = 0.00249502, Final residual = 5.73511e-06, No Iterations 7
DICPCG:  Solving for p, Initial residual = 0.271839, Final residual = 0.0126109, No Iterations 44
time step continuity errors : sum local = 1.58486e-07, global = -1.32069e-08, cumulative = 1.2419e-06
DICPCG:  Solving for p, Initial residual = 0.274689, Final residual = 9.26991e-07, No Iterations 236
time step continuity errors : sum local = 1.15346e-11, global = 8.1029e-14, cumulative = 1.2419e-06
ExecutionTime = 6.85 s  ClockTime = 7 s

Time = 0.456

Courant Number mean: 0.0741609 max: 0.670958
smoothSolver:  Solving for Ux, Initial residual = 0.000916354, Final residual = 5.4305e-06, No Iterations 6
smoothSolver:  Solving for Uy, Initial residual = 0.00245983, Final residual = 5.57695e-06, No Iterations 7
DICPCG:  Solving for p, Initial residual = 0.251047, Final residual = 0.0112677, No Iterations 44
time step continuity errors : sum local = 1.3917e-07, global = -1.16463e-08, cumulative = 1.23026e-06
DICPCG:  Solving for p, Initial residual = 0.253265, Final residual = 9.52524e-07, No Iterations 232
time step continuity errors : sum local = 1.15818e-11, global = -4.13745e-14, cumulative = 1.23026e-06
ExecutionTime = 6.95 s  ClockTime = 7 s

Time = 0.464

Courant Number mean: 0.074167 max: 0.669959
smoothSolver:  Solving for Ux, Initial residual = 0.000897418, Final residual = 9.89725e-06, No Iterations 5
smoothSolver:  Solving for Uy, Initial residual = 0.00242652, Final residual = 5.43293e-06, No Iterations 7
DICPCG:  Solving for p, Initial residual = 0.226878, Final residual = 0.0110678, No Iterations 43
time step continuity errors : sum local = 1.34002e-07, global = -9.22473e-09, cumulative = 1.22103e-06
DICPCG:  Solving for p, Initial residual = 0.228965, Final residual = 9.90828e-07, No Iterations 232
time step continuity errors : sum local = 1.17462e-11, global = 8.62298e-15, cumulative = 1.22103e-06
ExecutionTime = 7.06 s  ClockTime = 7 s

Time = 0.472

Courant Number mean: 0.0741733 max: 0.668997
smoothSolver:  Solving for Ux, Initial residual = 0.000877647, Final residual = 9.70353e-06, No Iterations 5
smoothSolver:  Solving for Uy, Initial residual = 0.00238841, Final residual = 9.99444e-06, No Iterations 6
DICPCG:  Solving for p, Initial residual = 0.199753, Final residual = 0.00953191, No Iterations 41
time step continuity errors : sum local = 1.13458e-07, global = -6.44312e-09, cumulative = 1.21459e-06
DICPCG:  Solving for p, Initial residual = 0.198864, Final residual = 9.52283e-07, No Iterations 236
time step continuity errors : sum local = 1.11008e-11, global = 9.39285e-14, cumulative = 1.21459e-06
ExecutionTime = 7.18 s  ClockTime = 7 s

Time = 0.48

Courant Number mean: 0.0741798 max: 0.66806
smoothSolver:  Solving for Ux, Initial residual = 0.000866316, Final residual = 9.45637e-06, No Iterations 5
smoothSolver:  Solving for Uy, Initial residual = 0.0023651, Final residual = 9.79052e-06, No Iterations 6
DICPCG:  Solving for p, Initial residual = 0.173681, Final residual = 0.00863382, No Iterations 37
time step continuity errors : sum local = 1.00611e-07, global = -1.46071e-09, cumulative = 1.21313e-06
DICPCG:  Solving for p, Initial residual = 0.170573, Final residual = 9.15322e-07, No Iterations 232
time step continuity errors : sum local = 1.05606e-11, global = -1.90218e-14, cumulative = 1.21313e-06
ExecutionTime = 7.28 s  ClockTime = 7 s

Time = 0.488

Courant Number mean: 0.0741864 max: 0.667155
smoothSolver:  Solving for Ux, Initial residual = 0.000853999, Final residual = 9.24707e-06, No Iterations 5
smoothSolver:  Solving for Uy, Initial residual = 0.00234252, Final residual = 9.64069e-06, No Iterations 6
DICPCG:  Solving for p, Initial residual = 0.152234, Final residual = 0.00750205, No Iterations 35
time step continuity errors : sum local = 8.63079e-08, global = -3.63249e-10, cumulative = 1.21276e-06
DICPCG:  Solving for p, Initial residual = 0.1499, Final residual = 9.6793e-07, No Iterations 227
time step continuity errors : sum local = 1.11258e-11, global = 5.98998e-14, cumulative = 1.21276e-06
ExecutionTime = 7.39 s  ClockTime = 7 s

Time = 0.496

Courant Number mean: 0.0741931 max: 0.66628
smoothSolver:  Solving for Ux, Initial residual = 0.000846934, Final residual = 9.0364e-06, No Iterations 5
smoothSolver:  Solving for Uy, Initial residual = 0.00231745, Final residual = 9.44447e-06, No Iterations 6
DICPCG:  Solving for p, Initial residual = 0.137607, Final residual = 0.00681879, No Iterations 37
time step continuity errors : sum local = 7.7637e-08, global = 4.9748e-10, cumulative = 1.21326e-06
DICPCG:  Solving for p, Initial residual = 0.135758, Final residual = 9.79338e-07, No Iterations 227
time step continuity errors : sum local = 1.1203e-11, global = 9.77809e-14, cumulative = 1.21326e-06
ExecutionTime = 7.62 s  ClockTime = 8 s

Time = 0.504

Courant Number mean: 0.0742 max: 0.665438
smoothSolver:  Solving for Ux, Initial residual = 0.000836081, Final residual = 8.87179e-06, No Iterations 5
smoothSolver:  Solving for Uy, Initial residual = 0.00228854, Final residual = 9.28581e-06, No Iterations 6
DICPCG:  Solving for p, Initial residual = 0.128846, Final residual = 0.0064095, No Iterations 42
time step continuity errors : sum local = 7.28166e-08, global = 2.03604e-09, cumulative = 1.2153e-06
DICPCG:  Solving for p, Initial residual = 0.128069, Final residual = 9.49413e-07, No Iterations 225
time step continuity errors : sum local = 1.08887e-11, global = 2.46658e-13, cumulative = 1.2153e-06
ExecutionTime = 7.73 s  ClockTime = 8 s

Time = 0.512

Courant Number mean: 0.0742071 max: 0.664625
smoothSolver:  Solving for Ux, Initial residual = 0.000827828, Final residual = 8.68278e-06, No Iterations 5
smoothSolver:  Solving for Uy, Initial residual = 0.00226985, Final residual = 9.16414e-06, No Iterations 6
DICPCG:  Solving for p, Initial residual = 0.125144, Final residual = 0.00605889, No Iterations 43
time step continuity errors : sum local = 6.86899e-08, global = 3.31981e-09, cumulative = 1.21862e-06
DICPCG:  Solving for p, Initial residual = 0.125319, Final residual = 9.59231e-07, No Iterations 228
time step continuity errors : sum local = 1.10315e-11, global = 2.40931e-13, cumulative = 1.21862e-06
ExecutionTime = 7.83 s  ClockTime = 8 s

Time = 0.52

Courant Number mean: 0.0742143 max: 0.66384
smoothSolver:  Solving for Ux, Initial residual = 0.000817444, Final residual = 8.50299e-06, No Iterations 5
smoothSolver:  Solving for Uy, Initial residual = 0.00225289, Final residual = 9.05507e-06, No Iterations 6
DICPCG:  Solving for p, Initial residual = 0.123693, Final residual = 0.00597799, No Iterations 44
time step continuity errors : sum local = 6.79061e-08, global = 3.36503e-09, cumulative = 1.22198e-06
DICPCG:  Solving for p, Initial residual = 0.12353, Final residual = 9.40796e-07, No Iterations 234
time step continuity errors : sum local = 1.0876e-11, global = 2.60318e-14, cumulative = 1.22198e-06
ExecutionTime = 7.95 s  ClockTime = 8 s

Time = 0.528

Courant Number mean: 0.0742216 max: 0.663084
smoothSolver:  Solving for Ux, Initial residual = 0.000808525, Final residual = 8.3087e-06, No Iterations 5
smoothSolver:  Solving for Uy, Initial residual = 0.0022391, Final residual = 8.93741e-06, No Iterations 6
DICPCG:  Solving for p, Initial residual = 0.123311, Final residual = 0.00609232, No Iterations 44
time step continuity errors : sum local = 6.92647e-08, global = 3.38187e-09, cumulative = 1.22536e-06
DICPCG:  Solving for p, Initial residual = 0.123641, Final residual = 9.99153e-07, No Iterations 235
time step continuity errors : sum local = 1.15911e-11, global = 9.13583e-15, cumulative = 1.22536e-06
ExecutionTime = 8.06 s  ClockTime = 8 s

Time = 0.536

Courant Number mean: 0.0742291 max: 0.662407
smoothSolver:  Solving for Ux, Initial residual = 0.000798746, Final residual = 8.12638e-06, No Iterations 5
smoothSolver:  Solving for Uy, Initial residual = 0.00222527, Final residual = 8.82195e-06, No Iterations 6
DICPCG:  Solving for p, Initial residual = 0.123506, Final residual = 0.00612628, No Iterations 44
time step continuity errors : sum local = 6.98623e-08, global = 2.89844e-09, cumulative = 1.22826e-06
DICPCG:  Solving for p, Initial residual = 0.123658, Final residual = 9.0505e-07, No Iterations 236
time step continuity errors : sum local = 1.05447e-11, global = 1.31506e-14, cumulative = 1.22826e-06
ExecutionTime = 8.17 s  ClockTime = 8 s

Time = 0.544

Courant Number mean: 0.0742367 max: 0.661768
smoothSolver:  Solving for Ux, Initial residual = 0.000789963, Final residual = 7.93992e-06, No Iterations 5
smoothSolver:  Solving for Uy, Initial residual = 0.00221207, Final residual = 8.69648e-06, No Iterations 6
DICPCG:  Solving for p, Initial residual = 0.123404, Final residual = 0.00607087, No Iterations 44
time step continuity errors : sum local = 6.94123e-08, global = 2.4996e-09, cumulative = 1.23076e-06
DICPCG:  Solving for p, Initial residual = 0.123104, Final residual = 9.2073e-07, No Iterations 236
time step continuity errors : sum local = 1.07624e-11, global = 4.16682e-14, cumulative = 1.23076e-06
ExecutionTime = 8.28 s  ClockTime = 8 s

Time = 0.552

Courant Number mean: 0.0742443 max: 0.661154
smoothSolver:  Solving for Ux, Initial residual = 0.000780988, Final residual = 7.76412e-06, No Iterations 5
smoothSolver:  Solving for Uy, Initial residual = 0.00219843, Final residual = 8.57096e-06, No Iterations 6
DICPCG:  Solving for p, Initial residual = 0.122517, Final residual = 0.0060105, No Iterations 44
time step continuity errors : sum local = 6.89641e-08, global = 2.0472e-09, cumulative = 1.23281e-06
DICPCG:  Solving for p, Initial residual = 0.122139, Final residual = 8.97693e-07, No Iterations 236
time step continuity errors : sum local = 1.0531e-11, global = 8.80857e-14, cumulative = 1.23281e-06
ExecutionTime = 8.39 s  ClockTime = 8 s

Time = 0.56

Courant Number mean: 0.0742521 max: 0.660565
smoothSolver:  Solving for Ux, Initial residual = 0.000772748, Final residual = 7.59145e-06, No Iterations 5
smoothSolver:  Solving for Uy, Initial residual = 0.002185, Final residual = 8.44004e-06, No Iterations 6
DICPCG:  Solving for p, Initial residual = 0.121883, Final residual = 0.00597095, No Iterations 44
time step continuity errors : sum local = 6.87075e-08, global = 1.86679e-09, cumulative = 1.23468e-06
DICPCG:  Solving for p, Initial residual = 0.121649, Final residual = 9.8351e-07, No Iterations 235
time step continuity errors : sum local = 1.15736e-11, global = 1.28289e-13, cumulative = 1.23468e-06
ExecutionTime = 8.5 s  ClockTime = 8 s

Time = 0.568

Courant Number mean: 0.0742599 max: 0.659997
smoothSolver:  Solving for Ux, Initial residual = 0.00076469, Final residual = 7.42967e-06, No Iterations 5
smoothSolver:  Solving for Uy, Initial residual = 0.00217108, Final residual = 8.31121e-06, No Iterations 6
DICPCG:  Solving for p, Initial residual = 0.122065, Final residual = 0.00606192, No Iterations 44
time step continuity errors : sum local = 6.99451e-08, global = 1.88507e-09, cumulative = 1.23656e-06
DICPCG:  Solving for p, Initial residual = 0.122116, Final residual = 9.55923e-07, No Iterations 234
time step continuity errors : sum local = 1.1282e-11, global = 8.93219e-14, cumulative = 1.23656e-06
ExecutionTime = 8.62 s  ClockTime = 9 s

Time = 0.576

Courant Number mean: 0.0742678 max: 0.65945
smoothSolver:  Solving for Ux, Initial residual = 0.000757181, Final residual = 7.27482e-06, No Iterations 5
smoothSolver:  Solving for Uy, Initial residual = 0.00215702, Final residual = 8.18283e-06, No Iterations 6
DICPCG:  Solving for p, Initial residual = 0.12307, Final residual = 0.0061388, No Iterations 44
time step continuity errors : sum local = 7.09917e-08, global = 2.22507e-09, cumulative = 1.23879e-06
DICPCG:  Solving for p, Initial residual = 0.123217, Final residual = 9.13242e-07, No Iterations 233
time step continuity errors : sum local = 1.08096e-11, global = 3.15306e-14, cumulative = 1.23879e-06
ExecutionTime = 8.72 s  ClockTime = 9 s

Time = 0.584

Courant Number mean: 0.0742757 max: 0.658921
smoothSolver:  Solving for Ux, Initial residual = 0.000749888, Final residual = 7.1301e-06, No Iterations 5
smoothSolver:  Solving for Uy, Initial residual = 0.00214235, Final residual = 8.05999e-06, No Iterations 6
DICPCG:  Solving for p, Initial residual = 0.124716, Final residual = 0.00577718, No Iterations 45
time step continuity errors : sum local = 6.69448e-08, global = 2.82486e-09, cumulative = 1.24161e-06
DICPCG:  Solving for p, Initial residual = 0.124239, Final residual = 8.69774e-07, No Iterations 232
time step continuity errors : sum local = 1.0322e-11, global = -1.13787e-14, cumulative = 1.24161e-06
ExecutionTime = 8.84 s  ClockTime = 9 s

Time = 0.592

Courant Number mean: 0.0742837 max: 0.65841
smoothSolver:  Solving for Ux, Initial residual = 0.000743039, Final residual = 6.99315e-06, No Iterations 5
smoothSolver:  Solving for Uy, Initial residual = 0.0021269, Final residual = 7.94485e-06, No Iterations 6
DICPCG:  Solving for p, Initial residual = 0.126566, Final residual = 0.00589794, No Iterations 45
time step continuity errors : sum local = 6.84219e-08, global = 3.53632e-09, cumulative = 1.24515e-06
DICPCG:  Solving for p, Initial residual = 0.126572, Final residual = 9.99197e-07, No Iterations 228
time step continuity errors : sum local = 1.1887e-11, global = -4.34432e-14, cumulative = 1.24515e-06
ExecutionTime = 8.94 s  ClockTime = 9 s

Time = 0.6

Courant Number mean: 0.0742918 max: 0.657914
smoothSolver:  Solving for Ux, Initial residual = 0.000736305, Final residual = 6.86345e-06, No Iterations 5
smoothSolver:  Solving for Uy, Initial residual = 0.00211092, Final residual = 7.83737e-06, No Iterations 6
DICPCG:  Solving for p, Initial residual = 0.129021, Final residual = 0.00602414, No Iterations 45
time step continuity errors : sum local = 6.99683e-08, global = 4.23254e-09, cumulative = 1.24938e-06
DICPCG:  Solving for p, Initial residual = 0.128944, Final residual = 9.00027e-07, No Iterations 225
time step continuity errors : sum local = 1.0728e-11, global = 7.7624e-14, cumulative = 1.24938e-06
ExecutionTime = 9.06 s  ClockTime = 9 s

Time = 0.608

Courant Number mean: 0.0742998 max: 0.657434
smoothSolver:  Solving for Ux, Initial residual = 0.000729483, Final residual = 6.73731e-06, No Iterations 5
smoothSolver:  Solving for Uy, Initial residual = 0.00209409, Final residual = 7.73659e-06, No Iterations 6
DICPCG:  Solving for p, Initial residual = 0.131062, Final residual = 0.00614044, No Iterations 45
time step continuity errors : sum local = 7.13829e-08, global = 4.81735e-09, cumulative = 1.2542e-06
DICPCG:  Solving for p, Initial residual = 0.130814, Final residual = 9.81405e-07, No Iterations 218
time step continuity errors : sum local = 1.17159e-11, global = 3.0491e-14, cumulative = 1.2542e-06
ExecutionTime = 9.16 s  ClockTime = 9 s

Time = 0.616

Courant Number mean: 0.074308 max: 0.656968
smoothSolver:  Solving for Ux, Initial residual = 0.000722486, Final residual = 6.61352e-06, No Iterations 5
smoothSolver:  Solving for Uy, Initial residual = 0.00207682, Final residual = 7.64221e-06, No Iterations 6
DICPCG:  Solving for p, Initial residual = 0.132028, Final residual = 0.00618048, No Iterations 45
time step continuity errors : sum local = 7.18992e-08, global = 5.189e-09, cumulative = 1.25939e-06
DICPCG:  Solving for p, Initial residual = 0.131394, Final residual = 9.66758e-07, No Iterations 222
time step continuity errors : sum local = 1.15489e-11, global = 1.59239e-13, cumulative = 1.25939e-06
ExecutionTime = 9.27 s  ClockTime = 9 s

Time = 0.624

Courant Number mean: 0.0743161 max: 0.656544
smoothSolver:  Solving for Ux, Initial residual = 0.00071528, Final residual = 6.4908e-06, No Iterations 5
smoothSolver:  Solving for Uy, Initial residual = 0.00205904, Final residual = 7.55108e-06, No Iterations 6
DICPCG:  Solving for p, Initial residual = 0.130986, Final residual = 0.00651529, No Iterations 44
time step continuity errors : sum local = 7.58101e-08, global = 5.29425e-09, cumulative = 1.26468e-06
DICPCG:  Solving for p, Initial residual = 0.129958, Final residual = 9.80878e-07, No Iterations 223
time step continuity errors : sum local = 1.17138e-11, global = 2.03002e-13, cumulative = 1.26468e-06
ExecutionTime = 9.37 s  ClockTime = 9 s

Time = 0.632

Courant Number mean: 0.0743243 max: 0.656146
smoothSolver:  Solving for Ux, Initial residual = 0.000707796, Final residual = 6.36581e-06, No Iterations 5
smoothSolver:  Solving for Uy, Initial residual = 0.00204101, Final residual = 7.46269e-06, No Iterations 6
DICPCG:  Solving for p, Initial residual = 0.12814, Final residual = 0.00631656, No Iterations 44
time step continuity errors : sum local = 7.34856e-08, global = 5.17283e-09, cumulative = 1.26986e-06
DICPCG:  Solving for p, Initial residual = 0.126907, Final residual = 9.98438e-07, No Iterations 221
time step continuity errors : sum local = 1.19067e-11, global = 1.88842e-13, cumulative = 1.26986e-06
ExecutionTime = 9.48 s  ClockTime = 9 s

Time = 0.64

Courant Number mean: 0.0743325 max: 0.65576
smoothSolver:  Solving for Ux, Initial residual = 0.000700038, Final residual = 6.24315e-06, No Iterations 5
smoothSolver:  Solving for Uy, Initial residual = 0.00202192, Final residual = 7.37411e-06, No Iterations 6
DICPCG:  Solving for p, Initial residual = 0.122525, Final residual = 0.00590764, No Iterations 44
time step continuity errors : sum local = 6.8674e-08, global = 4.76266e-09, cumulative = 1.27462e-06
DICPCG:  Solving for p, Initial residual = 0.120899, Final residual = 9.59106e-07, No Iterations 220
time step continuity errors : sum local = 1.14095e-11, global = 1.58141e-13, cumulative = 1.27462e-06
ExecutionTime = 9.59 s  ClockTime = 10 s

Time = 0.648

Courant Number mean: 0.0743407 max: 0.655384
smoothSolver:  Solving for Ux, Initial residual = 0.000692299, Final residual = 6.1214e-06, No Iterations 5
smoothSolver:  Solving for Uy, Initial residual = 0.00200304, Final residual = 7.28487e-06, No Iterations 6
DICPCG:  Solving for p, Initial residual = 0.115131, Final residual = 0.0054559, No Iterations 44
time step continuity errors : sum local = 6.33421e-08, global = 4.21068e-09, cumulative = 1.27883e-06
DICPCG:  Solving for p, Initial residual = 0.11326, Final residual = 9.80528e-07, No Iterations 220
time step continuity errors : sum local = 1.16265e-11, global = 2.26618e-13, cumulative = 1.27883e-06
ExecutionTime = 9.69 s  ClockTime = 10 s

Time = 0.656

Courant Number mean: 0.0743489 max: 0.655018
smoothSolver:  Solving for Ux, Initial residual = 0.000684627, Final residual = 6.00191e-06, No Iterations 5
smoothSolver:  Solving for Uy, Initial residual = 0.00198442, Final residual = 7.1937e-06, No Iterations 6
DICPCG:  Solving for p, Initial residual = 0.106413, Final residual = 0.00495542, No Iterations 44
time step continuity errors : sum local = 5.74523e-08, global = 3.57116e-09, cumulative = 1.2824e-06
DICPCG:  Solving for p, Initial residual = 0.104405, Final residual = 9.56635e-07, No Iterations 174
time step continuity errors : sum local = 1.13035e-11, global = -1.01351e-12, cumulative = 1.2824e-06
ExecutionTime = 9.78 s  ClockTime = 10 s

Time = 0.664

Courant Number mean: 0.0743572 max: 0.65466
smoothSolver:  Solving for Ux, Initial residual = 0.000677229, Final residual = 5.88475e-06, No Iterations 5
smoothSolver:  Solving for Uy, Initial residual = 0.00196659, Final residual = 7.10047e-06, No Iterations 6
DICPCG:  Solving for p, Initial residual = 0.0969623, Final residual = 0.00448181, No Iterations 44
time step continuity errors : sum local = 5.18907e-08, global = 2.95142e-09, cumulative = 1.28535e-06
DICPCG:  Solving for p, Initial residual = 0.0949774, Final residual = 9.27765e-07, No Iterations 225
time step continuity errors : sum local = 1.0923e-11, global = 1.97055e-13, cumulative = 1.28535e-06
ExecutionTime = 9.88 s  ClockTime = 10 s

Time = 0.672

Courant Number mean: 0.0743655 max: 0.654329
smoothSolver:  Solving for Ux, Initial residual = 0.00067015, Final residual = 5.77141e-06, No Iterations 5
smoothSolver:  Solving for Uy, Initial residual = 0.00194944, Final residual = 7.00587e-06, No Iterations 6
DICPCG:  Solving for p, Initial residual = 0.087477, Final residual = 0.00399671, No Iterations 44
time step continuity errors : sum local = 4.62158e-08, global = 2.40051e-09, cumulative = 1.28775e-06
DICPCG:  Solving for p, Initial residual = 0.085612, Final residual = 9.45378e-07, No Iterations 225
time step continuity errors : sum local = 1.10933e-11, global = 1.83177e-13, cumulative = 1.28775e-06
ExecutionTime = 10 s  ClockTime = 10 s

Time = 0.68

Courant Number mean: 0.0743737 max: 0.654019
smoothSolver:  Solving for Ux, Initial residual = 0.0006635, Final residual = 5.662e-06, No Iterations 5
smoothSolver:  Solving for Uy, Initial residual = 0.00193321, Final residual = 6.91022e-06, No Iterations 6
DICPCG:  Solving for p, Initial residual = 0.078504, Final residual = 0.00362363, No Iterations 44
time step continuity errors : sum local = 4.18593e-08, global = 1.96448e-09, cumulative = 1.28972e-06
DICPCG:  Solving for p, Initial residual = 0.076874, Final residual = 9.82691e-07, No Iterations 225
time step continuity errors : sum local = 1.14982e-11, global = 1.79122e-13, cumulative = 1.28972e-06
ExecutionTime = 10.1 s  ClockTime = 10 s

Time = 0.688

Courant Number mean: 0.0743821 max: 0.653714
smoothSolver:  Solving for Ux, Initial residual = 0.000657254, Final residual = 5.55691e-06, No Iterations 5
smoothSolver:  Solving for Uy, Initial residual = 0.0019177, Final residual = 6.81437e-06, No Iterations 6
DICPCG:  Solving for p, Initial residual = 0.0705333, Final residual = 0.00325264, No Iterations 44
time step continuity errors : sum local = 3.75433e-08, global = 1.65698e-09, cumulative = 1.29137e-06
DICPCG:  Solving for p, Initial residual = 0.0691406, Final residual = 9.02129e-07, No Iterations 225
time step continuity errors : sum local = 1.05304e-11, global = 1.76017e-13, cumulative = 1.29137e-06
ExecutionTime = 10.2 s  ClockTime = 10 s

Time = 0.696

Courant Number mean: 0.0743904 max: 0.653413
smoothSolver:  Solving for Ux, Initial residual = 0.000651426, Final residual = 5.45642e-06, No Iterations 5
smoothSolver:  Solving for Uy, Initial residual = 0.00190298, Final residual = 6.7185e-06, No Iterations 6
DICPCG:  Solving for p, Initial residual = 0.0639215, Final residual = 0.00295239, No Iterations 44
time step continuity errors : sum local = 3.40623e-08, global = 1.46893e-09, cumulative = 1.29284e-06
DICPCG:  Solving for p, Initial residual = 0.0627926, Final residual = 9.78102e-07, No Iterations 223
time step continuity errors : sum local = 1.13963e-11, global = 2.06911e-13, cumulative = 1.29284e-06
ExecutionTime = 10.31 s  ClockTime = 10 s

Time = 0.704

Courant Number mean: 0.0743987 max: 0.653116
smoothSolver:  Solving for Ux, Initial residual = 0.000645953, Final residual = 5.36003e-06, No Iterations 5
smoothSolver:  Solving for Uy, Initial residual = 0.00188872, Final residual = 6.62351e-06, No Iterations 6
DICPCG:  Solving for p, Initial residual = 0.0587125, Final residual = 0.00275147, No Iterations 44
time step continuity errors : sum local = 3.17356e-08, global = 1.37393e-09, cumulative = 1.29422e-06
DICPCG:  Solving for p, Initial residual = 0.0578915, Final residual = 9.7485e-07, No Iterations 221
time step continuity errors : sum local = 1.1344e-11, global = 1.86201e-13, cumulative = 1.29422e-06
ExecutionTime = 10.42 s  ClockTime = 10 s

Time = 0.712

Courant Number mean: 0.0744071 max: 0.652821
smoothSolver:  Solving for Ux, Initial residual = 0.000640756, Final residual = 5.26774e-06, No Iterations 5
smoothSolver:  Solving for Uy, Initial residual = 0.00187487, Final residual = 6.52945e-06, No Iterations 6
DICPCG:  Solving for p, Initial residual = 0.0548034, Final residual = 0.00256461, No Iterations 44
time step continuity errors : sum local = 2.95768e-08, global = 1.32902e-09, cumulative = 1.29555e-06
DICPCG:  Solving for p, Initial residual = 0.0541718, Final residual = 9.20644e-07, No Iterations 220
time step continuity errors : sum local = 1.07022e-11, global = 1.69554e-13, cumulative = 1.29555e-06
ExecutionTime = 10.52 s  ClockTime = 10 s

Time = 0.72

Courant Number mean: 0.0744154 max: 0.65253
smoothSolver:  Solving for Ux, Initial residual = 0.000635781, Final residual = 5.17913e-06, No Iterations 5
smoothSolver:  Solving for Uy, Initial residual = 0.00186128, Final residual = 6.43673e-06, No Iterations 6
DICPCG:  Solving for p, Initial residual = 0.051802, Final residual = 0.00241075, No Iterations 44
time step continuity errors : sum local = 2.78025e-08, global = 1.29808e-09, cumulative = 1.29684e-06
DICPCG:  Solving for p, Initial residual = 0.051333, Final residual = 9.09265e-07, No Iterations 219
time step continuity errors : sum local = 1.05623e-11, global = 1.40293e-13, cumulative = 1.29684e-06
ExecutionTime = 10.63 s  ClockTime = 11 s

Time = 0.728

Courant Number mean: 0.0744238 max: 0.652242
smoothSolver:  Solving for Ux, Initial residual = 0.000630969, Final residual = 9.89301e-06, No Iterations 4
smoothSolver:  Solving for Uy, Initial residual = 0.00184781, Final residual = 6.34541e-06, No Iterations 6
DICPCG:  Solving for p, Initial residual = 0.0512856, Final residual = 0.00243012, No Iterations 45
time step continuity errors : sum local = 2.80346e-08, global = 1.89736e-09, cumulative = 1.29874e-06
DICPCG:  Solving for p, Initial residual = 0.0506963, Final residual = 9.68473e-07, No Iterations 219
time step continuity errors : sum local = 1.12577e-11, global = 3.48337e-14, cumulative = 1.29874e-06
ExecutionTime = 10.74 s  ClockTime = 11 s

Time = 0.736

Courant Number mean: 0.0744321 max: 0.651963
smoothSolver:  Solving for Ux, Initial residual = 0.000623896, Final residual = 9.81662e-06, No Iterations 4
smoothSolver:  Solving for Uy, Initial residual = 0.00182884, Final residual = 6.25597e-06, No Iterations 6
DICPCG:  Solving for p, Initial residual = 0.0485375, Final residual = 0.00234838, No Iterations 44
time step continuity errors : sum local = 2.71812e-08, global = 1.19971e-09, cumulative = 1.29994e-06
DICPCG:  Solving for p, Initial residual = 0.0479684, Final residual = 9.00657e-07, No Iterations 219
time step continuity errors : sum local = 1.04983e-11, global = -7.81429e-14, cumulative = 1.29994e-06
ExecutionTime = 10.84 s  ClockTime = 11 s

Time = 0.744

Courant Number mean: 0.0744405 max: 0.651682
smoothSolver:  Solving for Ux, Initial residual = 0.000621059, Final residual = 9.61769e-06, No Iterations 4
smoothSolver:  Solving for Uy, Initial residual = 0.00181834, Final residual = 6.16297e-06, No Iterations 6
DICPCG:  Solving for p, Initial residual = 0.0463982, Final residual = 0.00214989, No Iterations 44
time step continuity errors : sum local = 2.48317e-08, global = 1.5046e-09, cumulative = 1.30145e-06
DICPCG:  Solving for p, Initial residual = 0.0458113, Final residual = 9.77539e-07, No Iterations 218
time step continuity errors : sum local = 1.13619e-11, global = -5.39413e-14, cumulative = 1.30145e-06
ExecutionTime = 10.94 s  ClockTime = 11 s

Time = 0.752

Courant Number mean: 0.0744488 max: 0.651757
smoothSolver:  Solving for Ux, Initial residual = 0.000615282, Final residual = 9.48789e-06, No Iterations 4
smoothSolver:  Solving for Uy, Initial residual = 0.00180467, Final residual = 6.08141e-06, No Iterations 6
DICPCG:  Solving for p, Initial residual = 0.0438424, Final residual = 0.00195669, No Iterations 44
[...]

    Reconstructing surfaceScalarFields

        phi

Reconstructing point fields

No point fields

No lagrangian fields

Time = 5.752

Reconstructing FV fields

    Reconstructing volScalarFields

        p

    Reconstructing volVectorFields

        U

    Reconstructing surfaceScalarFields

        phi

Reconstructing point fields

No point fields

No lagrangian fields

Time = 6

Reconstructing FV fields

    Reconstructing volScalarFields

        p

    Reconstructing volVectorFields

        U

    Reconstructing surfaceScalarFields

        phi

Reconstructing point fields

No point fields

No lagrangian fields

Time = 6.248

Reconstructing FV fields

    Reconstructing volScalarFields

        p

    Reconstructing volVectorFields

        U

    Reconstructing surfaceScalarFields

        phi

Reconstructing point fields

No point fields

No lagrangian fields

Time = 6.496

Reconstructing FV fields

    Reconstructing volScalarFields

        p

    Reconstructing volVectorFields

        U

    Reconstructing surfaceScalarFields

        phi

Reconstructing point fields

No point fields

No lagrangian fields

Time = 6.752

Reconstructing FV fields

    Reconstructing volScalarFields

        p

    Reconstructing volVectorFields

        U

    Reconstructing surfaceScalarFields

        phi

Reconstructing point fields

No point fields

No lagrangian fields

Time = 7

Reconstructing FV fields

    Reconstructing volScalarFields

        p

    Reconstructing volVectorFields

        U

    Reconstructing surfaceScalarFields

        phi

Reconstructing point fields

No point fields

No lagrangian fields

Time = 7.248

Reconstructing FV fields

    Reconstructing volScalarFields

        p

    Reconstructing volVectorFields

        U

    Reconstructing surfaceScalarFields

        phi

Reconstructing point fields

No point fields

No lagrangian fields

Time = 7.496

Reconstructing FV fields

    Reconstructing volScalarFields

        p

    Reconstructing volVectorFields

        U

    Reconstructing surfaceScalarFields

        phi

Reconstructing point fields

No point fields

No lagrangian fields

Time = 7.752

Reconstructing FV fields

    Reconstructing volScalarFields

        p

    Reconstructing volVectorFields

        U

    Reconstructing surfaceScalarFields

        phi

Reconstructing point fields

No point fields

No lagrangian fields

Time = 8

Reconstructing FV fields

    Reconstructing volScalarFields

        p

    Reconstructing volVectorFields

        U

    Reconstructing surfaceScalarFields

        phi

Reconstructing point fields

No point fields

No lagrangian fields

Time = 8.248

Reconstructing FV fields

    Reconstructing volScalarFields

        p

    Reconstructing volVectorFields

        U

    Reconstructing surfaceScalarFields

        phi

Reconstructing point fields

No point fields

No lagrangian fields

Time = 8.504

Reconstructing FV fields

    Reconstructing volScalarFields

        p

    Reconstructing volVectorFields

        U

    Reconstructing surfaceScalarFields

        phi

Reconstructing point fields

No point fields

No lagrangian fields

Time = 8.752

Reconstructing FV fields

    Reconstructing volScalarFields

        p

    Reconstructing volVectorFields

        U

    Reconstructing surfaceScalarFields

        phi

Reconstructing point fields

No point fields

No lagrangian fields

Time = 9

Reconstructing FV fields

    Reconstructing volScalarFields

        p

    Reconstructing volVectorFields

        U

    Reconstructing surfaceScalarFields

        phi

Reconstructing point fields

No point fields

No lagrangian fields

Time = 9.248

Reconstructing FV fields

    Reconstructing volScalarFields

        p

    Reconstructing volVectorFields

        U

    Reconstructing surfaceScalarFields

        phi

Reconstructing point fields

No point fields

No lagrangian fields

Time = 9.504

Reconstructing FV fields

    Reconstructing volScalarFields

        p

    Reconstructing volVectorFields

        U

    Reconstructing surfaceScalarFields

        phi

Reconstructing point fields

No point fields

No lagrangian fields

Time = 9.752

Reconstructing FV fields

    Reconstructing volScalarFields

        p

    Reconstructing volVectorFields

        U

    Reconstructing surfaceScalarFields

        phi

Reconstructing point fields

No point fields

No lagrangian fields

Time = 10

Reconstructing FV fields

    Reconstructing volScalarFields

        p

    Reconstructing volVectorFields

        U

    Reconstructing surfaceScalarFields

        phi

Reconstructing point fields

No point fields

No lagrangian fields

Time = 10.248

Reconstructing FV fields

    Reconstructing volScalarFields

        p

    Reconstructing volVectorFields

        U

    Reconstructing surfaceScalarFields

        phi

Reconstructing point fields

No point fields

No lagrangian fields

Time = 10.504

Reconstructing FV fields

    Reconstructing volScalarFields

        p

    Reconstructing volVectorFields

        U

    Reconstructing surfaceScalarFields

        phi

Reconstructing point fields

No point fields

No lagrangian fields

Time = 10.752

Reconstructing FV fields

    Reconstructing volScalarFields

        p

    Reconstructing volVectorFields

        U

    Reconstructing surfaceScalarFields

        phi

Reconstructing point fields

No point fields

No lagrangian fields

Time = 11

Reconstructing FV fields

    Reconstructing volScalarFields

        p

    Reconstructing volVectorFields

        U

    Reconstructing surfaceScalarFields

        phi

Reconstructing point fields

No point fields

No lagrangian fields

Time = 11.248

Reconstructing FV fields

    Reconstructing volScalarFields

        p

    Reconstructing volVectorFields

        U

    Reconstructing surfaceScalarFields

        phi

Reconstructing point fields

No point fields

No lagrangian fields

Time = 11.504

Reconstructing FV fields

    Reconstructing volScalarFields

        p

    Reconstructing volVectorFields

        U

    Reconstructing surfaceScalarFields

        phi

Reconstructing point fields

No point fields

No lagrangian fields

Time = 11.752

Reconstructing FV fields

    Reconstructing volScalarFields

        p

    Reconstructing volVectorFields

        U

    Reconstructing surfaceScalarFields

        phi

Reconstructing point fields

No point fields

No lagrangian fields

Time = 12

Reconstructing FV fields

    Reconstructing volScalarFields

        p

    Reconstructing volVectorFields

        U

    Reconstructing surfaceScalarFields

        phi

Reconstructing point fields

No point fields

No lagrangian fields

Time = 12.248

Reconstructing FV fields

    Reconstructing volScalarFields

        p

    Reconstructing volVectorFields

        U

    Reconstructing surfaceScalarFields

        phi

Reconstructing point fields

No point fields

No lagrangian fields

Time = 12.504

Reconstructing FV fields

    Reconstructing volScalarFields

        p

    Reconstructing volVectorFields

        U

    Reconstructing surfaceScalarFields

        phi

Reconstructing point fields

No point fields

No lagrangian fields

Time = 12.752

Reconstructing FV fields

    Reconstructing volScalarFields

        p

    Reconstructing volVectorFields

        U

    Reconstructing surfaceScalarFields

        phi

Reconstructing point fields

No point fields

No lagrangian fields

Time = 13

Reconstructing FV fields

    Reconstructing volScalarFields

        p

    Reconstructing volVectorFields

        U

    Reconstructing surfaceScalarFields

        phi

Reconstructing point fields

No point fields

No lagrangian fields

Time = 13.248

Reconstructing FV fields

    Reconstructing volScalarFields

        p

    Reconstructing volVectorFields

        U

    Reconstructing surfaceScalarFields

        phi

Reconstructing point fields

No point fields

No lagrangian fields

Time = 13.504

Reconstructing FV fields

    Reconstructing volScalarFields

        p

    Reconstructing volVectorFields

        U

    Reconstructing surfaceScalarFields

        phi

Reconstructing point fields

No point fields

No lagrangian fields

Time = 13.752

Reconstructing FV fields

    Reconstructing volScalarFields

        p

    Reconstructing volVectorFields

        U

    Reconstructing surfaceScalarFields

        phi

Reconstructing point fields

No point fields

No lagrangian fields

Time = 14

Reconstructing FV fields

    Reconstructing volScalarFields

        p

    Reconstructing volVectorFields

        U

    Reconstructing surfaceScalarFields

        phi

Reconstructing point fields

No point fields

No lagrangian fields

Time = 14.248

Reconstructing FV fields

    Reconstructing volScalarFields

        p

    Reconstructing volVectorFields

        U

    Reconstructing surfaceScalarFields

        phi

Reconstructing point fields

No point fields

No lagrangian fields

Time = 14.504

Reconstructing FV fields

    Reconstructing volScalarFields

        p

    Reconstructing volVectorFields

        U

    Reconstructing surfaceScalarFields

        phi

Reconstructing point fields

No point fields

No lagrangian fields

Time = 14.752

Reconstructing FV fields

    Reconstructing volScalarFields

        p

    Reconstructing volVectorFields

        U

    Reconstructing surfaceScalarFields

        phi

Reconstructing point fields

No point fields

No lagrangian fields

Time = 15

Reconstructing FV fields

    Reconstructing volScalarFields

        p

    Reconstructing volVectorFields

        U

    Reconstructing surfaceScalarFields

        phi

Reconstructing point fields

No point fields

No lagrangian fields

Time = 15.248

Reconstructing FV fields

    Reconstructing volScalarFields

        p

    Reconstructing volVectorFields

        U

    Reconstructing surfaceScalarFields

        phi

Reconstructing point fields

No point fields

No lagrangian fields

Time = 15.504

Reconstructing FV fields

    Reconstructing volScalarFields

        p

    Reconstructing volVectorFields

        U

    Reconstructing surfaceScalarFields

        phi

Reconstructing point fields

No point fields

No lagrangian fields

Time = 15.752

Reconstructing FV fields

    Reconstructing volScalarFields

        p

    Reconstructing volVectorFields

        U

    Reconstructing surfaceScalarFields

        phi

Reconstructing point fields

No point fields

No lagrangian fields

Time = 16

Reconstructing FV fields

    Reconstructing volScalarFields

        p

    Reconstructing volVectorFields

        U

    Reconstructing surfaceScalarFields

        phi

Reconstructing point fields

No point fields

No lagrangian fields

Time = 16.248

Reconstructing FV fields

    Reconstructing volScalarFields

        p

    Reconstructing volVectorFields

        U

    Reconstructing surfaceScalarFields

        phi

Reconstructing point fields

No point fields

No lagrangian fields

Time = 16.504

Reconstructing FV fields

    Reconstructing volScalarFields

        p

    Reconstructing volVectorFields

        U

    Reconstructing surfaceScalarFields

        phi

Reconstructing point fields

No point fields

No lagrangian fields

Time = 16.752

Reconstructing FV fields

    Reconstructing volScalarFields

        p

    Reconstructing volVectorFields

        U

    Reconstructing surfaceScalarFields

        phi

Reconstructing point fields

No point fields

No lagrangian fields

Time = 17

Reconstructing FV fields

    Reconstructing volScalarFields

        p

    Reconstructing volVectorFields

        U

    Reconstructing surfaceScalarFields

        phi

Reconstructing point fields

No point fields

No lagrangian fields

Time = 17.248

Reconstructing FV fields

    Reconstructing volScalarFields

        p

    Reconstructing volVectorFields

        U

    Reconstructing surfaceScalarFields

        phi

Reconstructing point fields

No point fields

No lagrangian fields

Time = 17.504

Reconstructing FV fields

    Reconstructing volScalarFields

        p

    Reconstructing volVectorFields

        U

    Reconstructing surfaceScalarFields

        phi

Reconstructing point fields

No point fields

No lagrangian fields

Time = 17.752

Reconstructing FV fields

    Reconstructing volScalarFields

        p

    Reconstructing volVectorFields

        U

    Reconstructing surfaceScalarFields

        phi

Reconstructing point fields

No point fields

No lagrangian fields

Time = 18

Reconstructing FV fields

    Reconstructing volScalarFields

        p

    Reconstructing volVectorFields

        U

    Reconstructing surfaceScalarFields

        phi

Reconstructing point fields

No point fields

No lagrangian fields

Time = 18.248

Reconstructing FV fields

    Reconstructing volScalarFields

        p

    Reconstructing volVectorFields

        U

    Reconstructing surfaceScalarFields

        phi

Reconstructing point fields

No point fields

No lagrangian fields

Time = 18.504

Reconstructing FV fields

    Reconstructing volScalarFields

        p

    Reconstructing volVectorFields

        U

    Reconstructing surfaceScalarFields

        phi

Reconstructing point fields

No point fields

No lagrangian fields

Time = 18.752

Reconstructing FV fields

    Reconstructing volScalarFields

        p

    Reconstructing volVectorFields

        U

    Reconstructing surfaceScalarFields

        phi

Reconstructing point fields

No point fields

No lagrangian fields

Time = 19

Reconstructing FV fields

    Reconstructing volScalarFields

        p

    Reconstructing volVectorFields

        U

    Reconstructing surfaceScalarFields

        phi

Reconstructing point fields

No point fields

No lagrangian fields

Time = 19.248

Reconstructing FV fields

    Reconstructing volScalarFields

        p

    Reconstructing volVectorFields

        U

    Reconstructing surfaceScalarFields

        phi

Reconstructing point fields

No point fields

No lagrangian fields

Time = 19.504

Reconstructing FV fields

    Reconstructing volScalarFields

        p

    Reconstructing volVectorFields

        U

    Reconstructing surfaceScalarFields

        phi

Reconstructing point fields

No point fields

No lagrangian fields

Time = 19.752

Reconstructing FV fields

    Reconstructing volScalarFields

        p

    Reconstructing volVectorFields

        U

    Reconstructing surfaceScalarFields

        phi

Reconstructing point fields

No point fields

No lagrangian fields

Time = 20

Reconstructing FV fields

    Reconstructing volScalarFields

        p

    Reconstructing volVectorFields

        U

    Reconstructing surfaceScalarFields

        phi

Reconstructing point fields

No point fields

No lagrangian fields

Time = 20.248

Reconstructing FV fields

    Reconstructing volScalarFields

        p

    Reconstructing volVectorFields

        U

    Reconstructing surfaceScalarFields

        phi

Reconstructing point fields

No point fields

No lagrangian fields

Time = 20.504

Reconstructing FV fields

    Reconstructing volScalarFields

        p

    Reconstructing volVectorFields

        U

    Reconstructing surfaceScalarFields

        phi

Reconstructing point fields

No point fields

No lagrangian fields

Time = 20.752

Reconstructing FV fields

    Reconstructing volScalarFields

        p

    Reconstructing volVectorFields

        U

    Reconstructing surfaceScalarFields

        phi

Reconstructing point fields

No point fields

No lagrangian fields

Time = 21

Reconstructing FV fields

    Reconstructing volScalarFields

        p

    Reconstructing volVectorFields

        U

    Reconstructing surfaceScalarFields

        phi

Reconstructing point fields

No point fields

No lagrangian fields

Time = 21.248

Reconstructing FV fields

    Reconstructing volScalarFields

        p

    Reconstructing volVectorFields

        U

    Reconstructing surfaceScalarFields

        phi

Reconstructing point fields

No point fields

No lagrangian fields

Time = 21.504

Reconstructing FV fields

    Reconstructing volScalarFields

        p

    Reconstructing volVectorFields

        U

    Reconstructing surfaceScalarFields

        phi

Reconstructing point fields

No point fields

No lagrangian fields

Time = 21.752

Reconstructing FV fields

    Reconstructing volScalarFields

        p

    Reconstructing volVectorFields

        U

    Reconstructing surfaceScalarFields

        phi

Reconstructing point fields

No point fields

No lagrangian fields

Time = 22

Reconstructing FV fields

    Reconstructing volScalarFields

        p

    Reconstructing volVectorFields

        U

    Reconstructing surfaceScalarFields

        phi

Reconstructing point fields

No point fields

No lagrangian fields

Time = 22.248

Reconstructing FV fields

    Reconstructing volScalarFields

        p

    Reconstructing volVectorFields

        U

    Reconstructing surfaceScalarFields

        phi

Reconstructing point fields

No point fields

No lagrangian fields

Time = 22.504

Reconstructing FV fields

    Reconstructing volScalarFields

        p

    Reconstructing volVectorFields

        U

    Reconstructing surfaceScalarFields

        phi

Reconstructing point fields

No point fields

No lagrangian fields

Time = 22.752

Reconstructing FV fields

    Reconstructing volScalarFields

        p

    Reconstructing volVectorFields

        U

    Reconstructing surfaceScalarFields

        phi

Reconstructing point fields

No point fields

No lagrangian fields

Time = 23

Reconstructing FV fields

    Reconstructing volScalarFields

        p

    Reconstructing volVectorFields

        U

    Reconstructing surfaceScalarFields

        phi

Reconstructing point fields

No point fields

No lagrangian fields

Time = 23.248

Reconstructing FV fields

    Reconstructing volScalarFields

        p

    Reconstructing volVectorFields

        U

    Reconstructing surfaceScalarFields

        phi

Reconstructing point fields

No point fields

No lagrangian fields

Time = 23.504

Reconstructing FV fields

    Reconstructing volScalarFields

        p

    Reconstructing volVectorFields

        U

    Reconstructing surfaceScalarFields

        phi

Reconstructing point fields

No point fields

No lagrangian fields

Time = 23.752

Reconstructing FV fields

    Reconstructing volScalarFields

        p

    Reconstructing volVectorFields

        U

    Reconstructing surfaceScalarFields

        phi

Reconstructing point fields

No point fields

No lagrangian fields

Time = 24

Reconstructing FV fields

    Reconstructing volScalarFields

        p

    Reconstructing volVectorFields

        U

    Reconstructing surfaceScalarFields

        phi

Reconstructing point fields

No point fields

No lagrangian fields

Time = 24.248

Reconstructing FV fields

    Reconstructing volScalarFields

        p

    Reconstructing volVectorFields

        U

    Reconstructing surfaceScalarFields

        phi

Reconstructing point fields

No point fields

No lagrangian fields

Time = 24.504

Reconstructing FV fields

    Reconstructing volScalarFields

        p

    Reconstructing volVectorFields

        U

    Reconstructing surfaceScalarFields

        phi

Reconstructing point fields

No point fields

No lagrangian fields

Time = 24.752

Reconstructing FV fields

    Reconstructing volScalarFields

        p

    Reconstructing volVectorFields

        U

    Reconstructing surfaceScalarFields

        phi

Reconstructing point fields

No point fields

No lagrangian fields

Time = 25

Reconstructing FV fields

    Reconstructing volScalarFields

        p

    Reconstructing volVectorFields

        U

    Reconstructing surfaceScalarFields

        phi

Reconstructing point fields

No point fields

No lagrangian fields


End

